(PID.TID 0000.0001) 
(PID.TID 0000.0001) // ======================================================
(PID.TID 0000.0001) //                      MITgcm UV
(PID.TID 0000.0001) //                      =========
(PID.TID 0000.0001) // ======================================================
(PID.TID 0000.0001) // execution environment starting up...
(PID.TID 0000.0001) 
(PID.TID 0000.0001) // MITgcmUV version:  checkpoint67v
(PID.TID 0000.0001) // Build user:        eavesr
(PID.TID 0000.0001) // Build host:        atmlxint3
(PID.TID 0000.0001) // Build date:        Mon  8 Mar 10:39:37 GMT 2021
(PID.TID 0000.0001) 
(PID.TID 0000.0001) // =======================================================
(PID.TID 0000.0001) // Execution Environment parameter file "eedata"
(PID.TID 0000.0001) // =======================================================
(PID.TID 0000.0001) ># Example "eedata" file
(PID.TID 0000.0001) ># Lines beginning "#" are comments
(PID.TID 0000.0001) >#  nTx      :: No. threads per process in X
(PID.TID 0000.0001) >#  nTy      :: No. threads per process in Y
(PID.TID 0000.0001) ># debugMode :: print debug msg (sequence of S/R calls)
(PID.TID 0000.0001) > &EEPARMS
(PID.TID 0000.0001) > nTx=1,
(PID.TID 0000.0001) > nTy=1,
(PID.TID 0000.0001) > &
(PID.TID 0000.0001) ># Note: Some systems use & as the namelist terminator (as shown here).
(PID.TID 0000.0001) >#       Other systems use a / character.
(PID.TID 0000.0001) 
(PID.TID 0000.0001) // =======================================================
(PID.TID 0000.0001) // Computational Grid Specification ( see files "SIZE.h" )
(PID.TID 0000.0001) //                                  ( and "eedata"       )
(PID.TID 0000.0001) // =======================================================
(PID.TID 0000.0001)      nPx =    1 ; /* No. processes in X */
(PID.TID 0000.0001)      nPy =    1 ; /* No. processes in Y */
(PID.TID 0000.0001)      nSx =    1 ; /* No. tiles in X per process */
(PID.TID 0000.0001)      nSy =    1 ; /* No. tiles in Y per process */
(PID.TID 0000.0001)      sNx =  248 ; /* Tile size in X */
(PID.TID 0000.0001)      sNy =  248 ; /* Tile size in Y */
(PID.TID 0000.0001)      OLx =    2 ; /* Tile overlap distance in X */
(PID.TID 0000.0001)      OLy =    2 ; /* Tile overlap distance in Y */
(PID.TID 0000.0001)      nTx =    1 ; /* No. threads in X per process */
(PID.TID 0000.0001)      nTy =    1 ; /* No. threads in Y per process */
(PID.TID 0000.0001)       Nr =    1 ; /* No. levels in the vertical   */
(PID.TID 0000.0001)       Nx =  248 ; /* Total domain size in X ( = nPx*nSx*sNx ) */
(PID.TID 0000.0001)       Ny =  248 ; /* Total domain size in Y ( = nPy*nSy*sNy ) */
(PID.TID 0000.0001)   nTiles =    1 ; /* Total no. tiles per process ( = nSx*nSy ) */
(PID.TID 0000.0001)   nProcs =    1 ; /* Total no. processes ( = nPx*nPy ) */
(PID.TID 0000.0001) nThreads =    1 ; /* Total no. threads per process ( = nTx*nTy ) */
(PID.TID 0000.0001) usingMPI =    F ; /* Flag used to control whether MPI is in use */
(PID.TID 0000.0001)                   /*  note: To execute a program with MPI calls */
(PID.TID 0000.0001)                   /*  it must be launched appropriately e.g     */
(PID.TID 0000.0001)                   /*  "mpirun -np 64 ......"                    */
(PID.TID 0000.0001) useCoupler=   F ; /* Flag used to control communications with   */
(PID.TID 0000.0001)                   /*  other model components, through a coupler */
(PID.TID 0000.0001) useNest2W_parent =    F ;/* Control 2-W Nesting comm */
(PID.TID 0000.0001) useNest2W_child  =    F ;/* Control 2-W Nesting comm */
(PID.TID 0000.0001) debugMode =    F ; /* print debug msg. (sequence of S/R calls)  */
(PID.TID 0000.0001) printMapIncludesZeros=    F ; /* print zeros in Std.Output maps */
(PID.TID 0000.0001) maxLengthPrt1D=   65 /* maxLength of 1D array printed to StdOut */
(PID.TID 0000.0001) 
(PID.TID 0000.0001) // ======================================================
(PID.TID 0000.0001) // Mapping of tiles to threads
(PID.TID 0000.0001) // ======================================================
(PID.TID 0000.0001) // -o- Thread   1, tiles (   1:   1,   1:   1)
(PID.TID 0000.0001) 
(PID.TID 0000.0001) // ======================================================
(PID.TID 0000.0001) // Tile <-> Tile connectvity table
(PID.TID 0000.0001) // ======================================================
(PID.TID 0000.0001) // Tile number: 000001 (process no. = 000000)
(PID.TID 0000.0001) //        WEST: Tile = 000001, Process = 000000, Comm = put
(PID.TID 0000.0001) //                bi = 000001, bj = 000001
(PID.TID 0000.0001) //        EAST: Tile = 000001, Process = 000000, Comm = put
(PID.TID 0000.0001) //                bi = 000001, bj = 000001
(PID.TID 0000.0001) //       SOUTH: Tile = 000001, Process = 000000, Comm = put
(PID.TID 0000.0001) //                bi = 000001, bj = 000001
(PID.TID 0000.0001) //       NORTH: Tile = 000001, Process = 000000, Comm = put
(PID.TID 0000.0001) //                bi = 000001, bj = 000001
(PID.TID 0000.0001) 
(PID.TID 0000.0001)  INI_PARMS: opening model parameter file "data"
(PID.TID 0000.0001)  OPEN_COPY_DATA_FILE: opening file data
(PID.TID 0000.0001) // =======================================================
(PID.TID 0000.0001) // Parameter file "data"
(PID.TID 0000.0001) // =======================================================
(PID.TID 0000.0001) ># Model parameters
(PID.TID 0000.0001) ># Continuous equation parameters
(PID.TID 0000.0001) > &PARM01
(PID.TID 0000.0001) > viscAh=4.E2,
(PID.TID 0000.0001) > f0=0.7E-4,
(PID.TID 0000.0001) > beta=2.E-11,
(PID.TID 0000.0001) > rhoConst=1027.,
(PID.TID 0000.0001) > gBaro=9.81,
(PID.TID 0000.0001) > rigidLid=.FALSE.,
(PID.TID 0000.0001) > implicitFreeSurface=.TRUE.,
(PID.TID 0000.0001) ># momAdvection=.FALSE.,
(PID.TID 0000.0001) > tempStepping=.FALSE.,
(PID.TID 0000.0001) > saltStepping=.FALSE.,
(PID.TID 0000.0001) > useSingleCpuIO=.TRUE.,
(PID.TID 0000.0001) > hFacMin=0.1,
(PID.TID 0000.0001) > &
(PID.TID 0000.0001) >
(PID.TID 0000.0001) ># Elliptic solver parameters
(PID.TID 0000.0001) > &PARM02
(PID.TID 0000.0001) > cg2dTargetResidual=1.E-7,
(PID.TID 0000.0001) > cg2dMaxIters=1000,
(PID.TID 0000.0001) > &
(PID.TID 0000.0001) >
(PID.TID 0000.0001) ># Time stepping parameters
(PID.TID 0000.0001) > &PARM03
(PID.TID 0000.0001) > nIter0=0,
(PID.TID 0000.0001) >#nTimeSteps=58400,
(PID.TID 0000.0001) > nTimeSteps=5824,
(PID.TID 0000.0001) > deltaT=5400.0,
(PID.TID 0000.0001) > pChkptFreq=31104000.0,
(PID.TID 0000.0001) > chkptFreq=25920000.0,
(PID.TID 0000.0001) > dumpFreq=864000.0,
(PID.TID 0000.0001) > monitorFreq=86400.,
(PID.TID 0000.0001) > monitorSelect=2,
(PID.TID 0000.0001) >#-for longer run (3.0 yr):
(PID.TID 0000.0001) ># nTimeSteps=77760,
(PID.TID 0000.0001) ># monitorFreq=864000.,
(PID.TID 0000.0001) > &
(PID.TID 0000.0001) >
(PID.TID 0000.0001) ># Gridding parameters
(PID.TID 0000.0001) > &PARM04
(PID.TID 0000.0001) > usingCartesianGrid=.TRUE.,
(PID.TID 0000.0001) > delX=248*5.E3,
(PID.TID 0000.0001) > delY=248*5.E3,
(PID.TID 0000.0001) > xgOrigin=-5.E3,
(PID.TID 0000.0001) > ygOrigin=-5.E3,
(PID.TID 0000.0001) > delR=5000.,
(PID.TID 0000.0001) > &
(PID.TID 0000.0001) >
(PID.TID 0000.0001) ># Input datasets
(PID.TID 0000.0001) > &PARM05
(PID.TID 0000.0001) > bathyFile='bathy.bin'
(PID.TID 0000.0001) >#zonalWindFile='wind.bin',
(PID.TID 0000.0001) >#zonalWindFile='windx_siny.bin',
(PID.TID 0000.0001) >#meridWindFile=,
(PID.TID 0000.0001) > uVelInitFile='u.bin',
(PID.TID 0000.0001) > vVelInitFile='v.bin',
(PID.TID 0000.0001) > &
(PID.TID 0000.0001) 
(PID.TID 0000.0001)  INI_PARMS ; starts to read PARM01
(PID.TID 0000.0001)  INI_PARMS ; read PARM01 : OK
(PID.TID 0000.0001)  INI_PARMS ; starts to read PARM02
(PID.TID 0000.0001)  INI_PARMS ; read PARM02 : OK
(PID.TID 0000.0001)  INI_PARMS ; starts to read PARM03
(PID.TID 0000.0001)  INI_PARMS ; read PARM03 : OK
(PID.TID 0000.0001)  INI_PARMS ; starts to read PARM04
(PID.TID 0000.0001)  INI_PARMS ; read PARM04 : OK
(PID.TID 0000.0001)  INI_PARMS ; starts to read PARM05
(PID.TID 0000.0001)  INI_PARMS ; read PARM05 : OK
(PID.TID 0000.0001)  INI_PARMS: finished reading file "data"
(PID.TID 0000.0001)  PACKAGES_BOOT: opening data.pkg
(PID.TID 0000.0001)  OPEN_COPY_DATA_FILE: opening file data.pkg
(PID.TID 0000.0001) // =======================================================
(PID.TID 0000.0001) // Parameter file "data.pkg"
(PID.TID 0000.0001) // =======================================================
(PID.TID 0000.0001) ># Packages
(PID.TID 0000.0001) > &PACKAGES
(PID.TID 0000.0001) > &
(PID.TID 0000.0001) 
(PID.TID 0000.0001)  PACKAGES_BOOT: finished reading data.pkg
(PID.TID 0000.0001)  PACKAGES_BOOT: On/Off package Summary
 --------  pkgs with a standard "usePKG" On/Off switch in "data.pkg":  --------
 -------- pkgs without standard "usePKG" On/Off switch in "data.pkg":  --------
 pkg/generic_advdiff      compiled but not used ( useGAD                   = F )
 pkg/mom_common           compiled   and   used ( momStepping              = T )
 pkg/mom_vecinv           compiled but not used ( +vectorInvariantMomentum = F )
 pkg/mom_fluxform         compiled   and   used ( & not vectorInvariantMom = T )
 pkg/monitor              compiled   and   used ( monitorFreq > 0.         = T )
 pkg/debug                compiled but not used ( debugMode                = F )
 pkg/rw                   compiled   and   used
 pkg/mdsio                compiled   and   used
(PID.TID 0000.0001)  PACKAGES_BOOT: End of package Summary
(PID.TID 0000.0001) 
(PID.TID 0000.0001) SET_PARMS: done
(PID.TID 0000.0001) Enter INI_VERTICAL_GRID: setInterFDr=    T ; setCenterDr=    F
(PID.TID 0000.0001) %MON XC_max                       =   1.2325000000000E+06
(PID.TID 0000.0001) %MON XC_min                       =  -2.5000000000000E+03
(PID.TID 0000.0001) %MON XC_mean                      =   6.1500000000000E+05
(PID.TID 0000.0001) %MON XC_sd                        =   3.5795425685414E+05
(PID.TID 0000.0001) %MON XG_max                       =   1.2300000000000E+06
(PID.TID 0000.0001) %MON XG_min                       =  -5.0000000000000E+03
(PID.TID 0000.0001) %MON XG_mean                      =   6.1250000000000E+05
(PID.TID 0000.0001) %MON XG_sd                        =   3.5795425685414E+05
(PID.TID 0000.0001) %MON DXC_max                      =   5.0000000000000E+03
(PID.TID 0000.0001) %MON DXC_min                      =   5.0000000000000E+03
(PID.TID 0000.0001) %MON DXC_mean                     =   5.0000000000000E+03
(PID.TID 0000.0001) %MON DXC_sd                       =   9.0949470177293E-13
(PID.TID 0000.0001) %MON DXF_max                      =   5.0000000000000E+03
(PID.TID 0000.0001) %MON DXF_min                      =   5.0000000000000E+03
(PID.TID 0000.0001) %MON DXF_mean                     =   5.0000000000000E+03
(PID.TID 0000.0001) %MON DXF_sd                       =   9.0949470177293E-13
(PID.TID 0000.0001) %MON DXG_max                      =   5.0000000000000E+03
(PID.TID 0000.0001) %MON DXG_min                      =   5.0000000000000E+03
(PID.TID 0000.0001) %MON DXG_mean                     =   5.0000000000000E+03
(PID.TID 0000.0001) %MON DXG_sd                       =   9.0949470177293E-13
(PID.TID 0000.0001) %MON DXV_max                      =   5.0000000000000E+03
(PID.TID 0000.0001) %MON DXV_min                      =   5.0000000000000E+03
(PID.TID 0000.0001) %MON DXV_mean                     =   5.0000000000000E+03
(PID.TID 0000.0001) %MON DXV_sd                       =   9.0949470177293E-13
(PID.TID 0000.0001) %MON YC_max                       =   1.2325000000000E+06
(PID.TID 0000.0001) %MON YC_min                       =  -2.5000000000000E+03
(PID.TID 0000.0001) %MON YC_mean                      =   6.1500000000000E+05
(PID.TID 0000.0001) %MON YC_sd                        =   3.5795425685414E+05
(PID.TID 0000.0001) %MON YG_max                       =   1.2300000000000E+06
(PID.TID 0000.0001) %MON YG_min                       =  -5.0000000000000E+03
(PID.TID 0000.0001) %MON YG_mean                      =   6.1250000000000E+05
(PID.TID 0000.0001) %MON YG_sd                        =   3.5795425685414E+05
(PID.TID 0000.0001) %MON DYC_max                      =   5.0000000000000E+03
(PID.TID 0000.0001) %MON DYC_min                      =   5.0000000000000E+03
(PID.TID 0000.0001) %MON DYC_mean                     =   5.0000000000000E+03
(PID.TID 0000.0001) %MON DYC_sd                       =   9.0949470177293E-13
(PID.TID 0000.0001) %MON DYF_max                      =   5.0000000000000E+03
(PID.TID 0000.0001) %MON DYF_min                      =   5.0000000000000E+03
(PID.TID 0000.0001) %MON DYF_mean                     =   5.0000000000000E+03
(PID.TID 0000.0001) %MON DYF_sd                       =   9.0949470177293E-13
(PID.TID 0000.0001) %MON DYG_max                      =   5.0000000000000E+03
(PID.TID 0000.0001) %MON DYG_min                      =   5.0000000000000E+03
(PID.TID 0000.0001) %MON DYG_mean                     =   5.0000000000000E+03
(PID.TID 0000.0001) %MON DYG_sd                       =   9.0949470177293E-13
(PID.TID 0000.0001) %MON DYU_max                      =   5.0000000000000E+03
(PID.TID 0000.0001) %MON DYU_min                      =   5.0000000000000E+03
(PID.TID 0000.0001) %MON DYU_mean                     =   5.0000000000000E+03
(PID.TID 0000.0001) %MON DYU_sd                       =   9.0949470177293E-13
(PID.TID 0000.0001) %MON RA_max                       =   2.5000000000000E+07
(PID.TID 0000.0001) %MON RA_min                       =   2.5000000000000E+07
(PID.TID 0000.0001) %MON RA_mean                      =   2.5000000000000E+07
(PID.TID 0000.0001) %MON RA_sd                        =   3.7252902984619E-09
(PID.TID 0000.0001) %MON RAW_max                      =   2.5000000000000E+07
(PID.TID 0000.0001) %MON RAW_min                      =   2.5000000000000E+07
(PID.TID 0000.0001) %MON RAW_mean                     =   2.5000000000000E+07
(PID.TID 0000.0001) %MON RAW_sd                       =   3.7252902984619E-09
(PID.TID 0000.0001) %MON RAS_max                      =   2.5000000000000E+07
(PID.TID 0000.0001) %MON RAS_min                      =   2.5000000000000E+07
(PID.TID 0000.0001) %MON RAS_mean                     =   2.5000000000000E+07
(PID.TID 0000.0001) %MON RAS_sd                       =   3.7252902984619E-09
(PID.TID 0000.0001) %MON RAZ_max                      =   2.5000000000000E+07
(PID.TID 0000.0001) %MON RAZ_min                      =   2.5000000000000E+07
(PID.TID 0000.0001) %MON RAZ_mean                     =   2.5000000000000E+07
(PID.TID 0000.0001) %MON RAZ_sd                       =   3.7252902984619E-09
(PID.TID 0000.0001) %MON AngleCS_max                  =   1.0000000000000E+00
(PID.TID 0000.0001) %MON AngleCS_min                  =   1.0000000000000E+00
(PID.TID 0000.0001) %MON AngleCS_mean                 =   1.0000000000000E+00
(PID.TID 0000.0001) %MON AngleCS_sd                   =   0.0000000000000E+00
(PID.TID 0000.0001) %MON AngleSN_max                  =   0.0000000000000E+00
(PID.TID 0000.0001) %MON AngleSN_min                  =   0.0000000000000E+00
(PID.TID 0000.0001) %MON AngleSN_mean                 =   0.0000000000000E+00
(PID.TID 0000.0001) %MON AngleSN_sd                   =   0.0000000000000E+00
(PID.TID 0000.0001)  MDS_READ_FIELD: opening global file: bathy.bin
(PID.TID 0000.0001) // =======================================================
(PID.TID 0000.0001) // Field Model R_low (ini_masks_etc)
(PID.TID 0000.0001) // CMIN =         -5.000000000000000E+03
(PID.TID 0000.0001) // CMAX =         -5.000000000000000E+03
(PID.TID 0000.0001) // CINT =          0.000000000000000E+00
(PID.TID 0000.0001) // SYMBOLS (CMIN->CMAX): -abcdefghijklmnopqrstuvwxyz+
(PID.TID 0000.0001) //                  0.0: .
(PID.TID 0000.0001) // RANGE I (Lo:Hi:Step):(    -1:   250:     1)
(PID.TID 0000.0001) // RANGE J (Lo:Hi:Step):(   250:    -1:    -1)
(PID.TID 0000.0001) // RANGE K (Lo:Hi:Step):(   1:   1:   1)
(PID.TID 0000.0001) // =======================================================
(PID.TID 0000.0001) // =======================================================
(PID.TID 0000.0001) // END OF FIELD                                          =
(PID.TID 0000.0001) // =======================================================
(PID.TID 0000.0001) 
(PID.TID 0000.0001) // =======================================================
(PID.TID 0000.0001) // Field Model Ro_surf (ini_masks_etc)
(PID.TID 0000.0001) // CMIN =          1.000000000000000E+32
(PID.TID 0000.0001) // CMAX =         -1.000000000000000E+32
(PID.TID 0000.0001) // CINT =          0.000000000000000E+00
(PID.TID 0000.0001) // SYMBOLS (CMIN->CMAX): -abcdefghijklmnopqrstuvwxyz+
(PID.TID 0000.0001) //                  0.0: .
(PID.TID 0000.0001) // RANGE I (Lo:Hi:Step):(    -1:   250:     1)
(PID.TID 0000.0001) // RANGE J (Lo:Hi:Step):(   250:    -1:    -1)
(PID.TID 0000.0001) // RANGE K (Lo:Hi:Step):(   1:   1:   1)
(PID.TID 0000.0001) // =======================================================
(PID.TID 0000.0001) // =======================================================
(PID.TID 0000.0001) // END OF FIELD                                          =
(PID.TID 0000.0001) // =======================================================
(PID.TID 0000.0001) 
(PID.TID 0000.0001) // =======================================================
(PID.TID 0000.0001) // Field hFacC at iteration          0
(PID.TID 0000.0001) // CMIN =          1.000000000000000E+00
(PID.TID 0000.0001) // CMAX =          1.000000000000000E+00
(PID.TID 0000.0001) // CINT =          0.000000000000000E+00
(PID.TID 0000.0001) // SYMBOLS (CMIN->CMAX): -abcdefghijklmnopqrstuvwxyz+
(PID.TID 0000.0001) //                  0.0: .
(PID.TID 0000.0001) // RANGE I (Lo:Hi:Step):(    -1:   250:     1)
(PID.TID 0000.0001) // RANGE J (Lo:Hi:Step):(   250:    -1:    -1)
(PID.TID 0000.0001) // RANGE K (Lo:Hi:Step):(   1:   1:   1)
(PID.TID 0000.0001) // =======================================================
(PID.TID 0000.0001) // =======================================================
(PID.TID 0000.0001) // END OF FIELD                                          =
(PID.TID 0000.0001) // =======================================================
(PID.TID 0000.0001) 
(PID.TID 0000.0001) // =======================================================
(PID.TID 0000.0001) // Field hFacW at iteration          0
(PID.TID 0000.0001) // CMIN =          1.000000000000000E+00
(PID.TID 0000.0001) // CMAX =          1.000000000000000E+00
(PID.TID 0000.0001) // CINT =          0.000000000000000E+00
(PID.TID 0000.0001) // SYMBOLS (CMIN->CMAX): -abcdefghijklmnopqrstuvwxyz+
(PID.TID 0000.0001) //                  0.0: .
(PID.TID 0000.0001) // RANGE I (Lo:Hi:Step):(    -1:   250:     1)
(PID.TID 0000.0001) // RANGE J (Lo:Hi:Step):(   250:    -1:    -1)
(PID.TID 0000.0001) // RANGE K (Lo:Hi:Step):(   1:   1:   1)
(PID.TID 0000.0001) // =======================================================
(PID.TID 0000.0001) // =======================================================
(PID.TID 0000.0001) // END OF FIELD                                          =
(PID.TID 0000.0001) // =======================================================
(PID.TID 0000.0001) 
(PID.TID 0000.0001) // =======================================================
(PID.TID 0000.0001) // Field hFacS at iteration          0
(PID.TID 0000.0001) // CMIN =          1.000000000000000E+00
(PID.TID 0000.0001) // CMAX =          1.000000000000000E+00
(PID.TID 0000.0001) // CINT =          0.000000000000000E+00
(PID.TID 0000.0001) // SYMBOLS (CMIN->CMAX): -abcdefghijklmnopqrstuvwxyz+
(PID.TID 0000.0001) //                  0.0: .
(PID.TID 0000.0001) // RANGE I (Lo:Hi:Step):(    -1:   250:     1)
(PID.TID 0000.0001) // RANGE J (Lo:Hi:Step):(   250:    -1:    -1)
(PID.TID 0000.0001) // RANGE K (Lo:Hi:Step):(   1:   1:   1)
(PID.TID 0000.0001) // =======================================================
(PID.TID 0000.0001) // =======================================================
(PID.TID 0000.0001) // END OF FIELD                                          =
(PID.TID 0000.0001) // =======================================================
(PID.TID 0000.0001) 
(PID.TID 0000.0001) GAD_INIT_FIXED: GAD_OlMinSize=  0  0  1
(PID.TID 0000.0001) 
(PID.TID 0000.0001) // ===================================
(PID.TID 0000.0001) // GAD parameters :
(PID.TID 0000.0001) // ===================================
(PID.TID 0000.0001) tempAdvScheme =   /* Temp. Horiz.Advection scheme selector */
(PID.TID 0000.0001)                       2
(PID.TID 0000.0001)     ;
(PID.TID 0000.0001) tempVertAdvScheme =   /* Temp. Vert. Advection scheme selector */
(PID.TID 0000.0001)                       2
(PID.TID 0000.0001)     ;
(PID.TID 0000.0001) tempMultiDimAdvec =   /* use Muti-Dim Advec method for Temp */
(PID.TID 0000.0001)                   F
(PID.TID 0000.0001)     ;
(PID.TID 0000.0001) tempSOM_Advection = /* use 2nd Order Moment Advection for Temp */
(PID.TID 0000.0001)                   F
(PID.TID 0000.0001)     ;
(PID.TID 0000.0001) AdamsBashforthGt = /* apply Adams-Bashforth extrapolation on Gt */
(PID.TID 0000.0001)                   F
(PID.TID 0000.0001)     ;
(PID.TID 0000.0001) AdamsBashforth_T = /* apply Adams-Bashforth extrapolation on Temp */
(PID.TID 0000.0001)                   F
(PID.TID 0000.0001)     ;
(PID.TID 0000.0001) saltAdvScheme =   /* Salt. Horiz.advection scheme selector */
(PID.TID 0000.0001)                       2
(PID.TID 0000.0001)     ;
(PID.TID 0000.0001) saltVertAdvScheme =   /* Salt. Vert. Advection scheme selector */
(PID.TID 0000.0001)                       2
(PID.TID 0000.0001)     ;
(PID.TID 0000.0001) saltMultiDimAdvec =   /* use Muti-Dim Advec method for Salt */
(PID.TID 0000.0001)                   F
(PID.TID 0000.0001)     ;
(PID.TID 0000.0001) saltSOM_Advection = /* use 2nd Order Moment Advection for Salt */
(PID.TID 0000.0001)                   F
(PID.TID 0000.0001)     ;
(PID.TID 0000.0001) AdamsBashforthGs = /* apply Adams-Bashforth extrapolation on Gs */
(PID.TID 0000.0001)                   F
(PID.TID 0000.0001)     ;
(PID.TID 0000.0001) AdamsBashforth_S = /* apply Adams-Bashforth extrapolation on Salt */
(PID.TID 0000.0001)                   F
(PID.TID 0000.0001)     ;
(PID.TID 0000.0001) // ===================================
(PID.TID 0000.0001) %MON fCori_max                    =   9.4650000000000E-05
(PID.TID 0000.0001) %MON fCori_min                    =   6.9950000000000E-05
(PID.TID 0000.0001) %MON fCori_mean                   =   8.2300000000003E-05
(PID.TID 0000.0001) %MON fCori_sd                     =   7.1590851370829E-06
(PID.TID 0000.0001) %MON fCoriG_max                   =   9.4600000000000E-05
(PID.TID 0000.0001) %MON fCoriG_min                   =   6.9900000000000E-05
(PID.TID 0000.0001) %MON fCoriG_mean                  =   8.2250000000006E-05
(PID.TID 0000.0001) %MON fCoriG_sd                    =   7.1590851370828E-06
(PID.TID 0000.0001) %MON fCoriCos_max                 =   0.0000000000000E+00
(PID.TID 0000.0001) %MON fCoriCos_min                 =   0.0000000000000E+00
(PID.TID 0000.0001) %MON fCoriCos_mean                =   0.0000000000000E+00
(PID.TID 0000.0001) %MON fCoriCos_sd                  =   0.0000000000000E+00
(PID.TID 0000.0001) INI_CG2D: CG2D normalisation factor =  2.0000000000000001E-04
(PID.TID 0000.0001) 
(PID.TID 0000.0001) // =======================================================
(PID.TID 0000.0001) // Model configuration
(PID.TID 0000.0001) // =======================================================
(PID.TID 0000.0001) //
(PID.TID 0000.0001) // "Physical" paramters ( PARM01 in namelist )
(PID.TID 0000.0001) //
(PID.TID 0000.0001) buoyancyRelation = /* Type of relation to get Buoyancy */
(PID.TID 0000.0001)               'OCEANIC'
(PID.TID 0000.0001)     ;
(PID.TID 0000.0001) fluidIsAir   =  /* fluid major constituent is Air */
(PID.TID 0000.0001)                   F
(PID.TID 0000.0001)     ;
(PID.TID 0000.0001) fluidIsWater =  /* fluid major constituent is Water */
(PID.TID 0000.0001)                   T
(PID.TID 0000.0001)     ;
(PID.TID 0000.0001) usingPCoords =  /* use p (or p*) vertical coordinate */
(PID.TID 0000.0001)                   F
(PID.TID 0000.0001)     ;
(PID.TID 0000.0001) usingZCoords =  /* use z (or z*) vertical coordinate */
(PID.TID 0000.0001)                   T
(PID.TID 0000.0001)     ;
(PID.TID 0000.0001) tRef =   /* Reference temperature profile ( oC or K ) */
(PID.TID 0000.0001)                 2.000000000000000E+01       /* K =  1 */
(PID.TID 0000.0001)     ;
(PID.TID 0000.0001) sRef =   /* Reference salinity profile ( psu ) */
(PID.TID 0000.0001)                 3.000000000000000E+01       /* K =  1 */
(PID.TID 0000.0001)     ;
(PID.TID 0000.0001) useStrainTensionVisc= /* Use StrainTension Form of Viscous Operator */
(PID.TID 0000.0001)                   F
(PID.TID 0000.0001)     ;
(PID.TID 0000.0001) useVariableVisc = /* Use variable horizontal viscosity */
(PID.TID 0000.0001)                   F
(PID.TID 0000.0001)     ;
(PID.TID 0000.0001) useHarmonicVisc = /* Use harmonic horizontal viscosity */
(PID.TID 0000.0001)                   T
(PID.TID 0000.0001)     ;
(PID.TID 0000.0001) useBiharmonicVisc= /* Use biharmonic horiz.  viscosity */
(PID.TID 0000.0001)                   F
(PID.TID 0000.0001)     ;
(PID.TID 0000.0001) useSmag3D = /* Use isotropic 3-D Smagorinsky viscosity */
(PID.TID 0000.0001)                   F
(PID.TID 0000.0001)     ;
(PID.TID 0000.0001) viscAh  =   /* Lateral harmonic viscosity ( m^2/s ) */
(PID.TID 0000.0001)                 4.000000000000000E+02
(PID.TID 0000.0001)     ;
(PID.TID 0000.0001) viscA4  =   /* Lateral biharmonic viscosity ( m^4/s ) */
(PID.TID 0000.0001)                 0.000000000000000E+00
(PID.TID 0000.0001)     ;
(PID.TID 0000.0001) no_slip_sides =  /* Viscous BCs: No-slip sides */
(PID.TID 0000.0001)                   T
(PID.TID 0000.0001)     ;
(PID.TID 0000.0001) sideDragFactor = /* side-drag scaling factor (non-dim) */
(PID.TID 0000.0001)                 2.000000000000000E+00
(PID.TID 0000.0001)     ;
(PID.TID 0000.0001) viscArNr = /* vertical profile of vertical viscosity ( m^2/s )*/
(PID.TID 0000.0001)                 0.000000000000000E+00       /* K =  1 */
(PID.TID 0000.0001)     ;
(PID.TID 0000.0001) no_slip_bottom =  /* Viscous BCs: No-slip bottom */
(PID.TID 0000.0001)                   T
(PID.TID 0000.0001)     ;
(PID.TID 0000.0001) bottomVisc_pCell = /* Partial-cell in bottom Visc. BC */
(PID.TID 0000.0001)                   F
(PID.TID 0000.0001)     ;
(PID.TID 0000.0001) bottomDragLinear = /* linear bottom-drag coefficient ( m/s ) */
(PID.TID 0000.0001)                 0.000000000000000E+00
(PID.TID 0000.0001)     ;
(PID.TID 0000.0001) bottomDragQuadratic = /* quadratic bottom-drag coefficient (-) */
(PID.TID 0000.0001)                 0.000000000000000E+00
(PID.TID 0000.0001)     ;
(PID.TID 0000.0001) selectBotDragQuadr = /* select quadratic bottom drag options */
(PID.TID 0000.0001)                      -1
(PID.TID 0000.0001)     ;
(PID.TID 0000.0001) diffKhT =   /* Laplacian diffusion of heat laterally ( m^2/s ) */
(PID.TID 0000.0001)                 0.000000000000000E+00
(PID.TID 0000.0001)     ;
(PID.TID 0000.0001) diffK4T =   /* Biharmonic diffusion of heat laterally ( m^4/s ) */
(PID.TID 0000.0001)                 0.000000000000000E+00
(PID.TID 0000.0001)     ;
(PID.TID 0000.0001) diffKhS =   /* Laplacian diffusion of salt laterally ( m^2/s ) */
(PID.TID 0000.0001)                 0.000000000000000E+00
(PID.TID 0000.0001)     ;
(PID.TID 0000.0001) diffK4S =   /* Biharmonic diffusion of salt laterally ( m^4/s ) */
(PID.TID 0000.0001)                 0.000000000000000E+00
(PID.TID 0000.0001)     ;
(PID.TID 0000.0001) diffKrNrT = /* vertical profile of vertical diffusion of Temp ( m^2/s )*/
(PID.TID 0000.0001)                 0.000000000000000E+00       /* K =  1 */
(PID.TID 0000.0001)     ;
(PID.TID 0000.0001) diffKrNrS = /* vertical profile of vertical diffusion of Salt ( m^2/s )*/
(PID.TID 0000.0001)                 0.000000000000000E+00       /* K =  1 */
(PID.TID 0000.0001)     ;
(PID.TID 0000.0001) diffKrBL79surf = /* Surface diffusion for Bryan and Lewis 79 ( m^2/s ) */
(PID.TID 0000.0001)                 0.000000000000000E+00
(PID.TID 0000.0001)     ;
(PID.TID 0000.0001) diffKrBL79deep = /* Deep diffusion for Bryan and Lewis 1979 ( m^2/s ) */
(PID.TID 0000.0001)                 0.000000000000000E+00
(PID.TID 0000.0001)     ;
(PID.TID 0000.0001) diffKrBL79scl = /* Depth scale for Bryan and Lewis 1979 ( m ) */
(PID.TID 0000.0001)                 2.000000000000000E+02
(PID.TID 0000.0001)     ;
(PID.TID 0000.0001) diffKrBL79Ho = /* Turning depth for Bryan and Lewis 1979 ( m ) */
(PID.TID 0000.0001)                -2.000000000000000E+03
(PID.TID 0000.0001)     ;
(PID.TID 0000.0001) ivdc_kappa = /* Implicit Vertical Diffusivity for Convection ( m^2/s) */
(PID.TID 0000.0001)                 0.000000000000000E+00
(PID.TID 0000.0001)     ;
(PID.TID 0000.0001) hMixCriteria=  /* Criteria for mixed-layer diagnostic */
(PID.TID 0000.0001)                -8.000000000000000E-01
(PID.TID 0000.0001)     ;
(PID.TID 0000.0001) dRhoSmall =  /* Parameter for mixed-layer diagnostic */
(PID.TID 0000.0001)                 1.000000000000000E-06
(PID.TID 0000.0001)     ;
(PID.TID 0000.0001) hMixSmooth=  /* Smoothing parameter for mixed-layer diagnostic */
(PID.TID 0000.0001)                 0.000000000000000E+00
(PID.TID 0000.0001)     ;
(PID.TID 0000.0001) eosType =  /* Type of Equation of State */
(PID.TID 0000.0001)               'LINEAR'
(PID.TID 0000.0001)     ;
(PID.TID 0000.0001) tAlpha = /* Linear EOS thermal expansion coefficient ( 1/oC ) */
(PID.TID 0000.0001)                 2.000000000000000E-04
(PID.TID 0000.0001)     ;
(PID.TID 0000.0001) sBeta  = /* Linear EOS haline contraction coefficient ( 1/psu ) */
(PID.TID 0000.0001)                 7.400000000000000E-04
(PID.TID 0000.0001)     ;
(PID.TID 0000.0001) rhoNil    = /* Reference density for Linear EOS ( kg/m^3 ) */
(PID.TID 0000.0001)                 9.998000000000000E+02
(PID.TID 0000.0001)     ;
(PID.TID 0000.0001) selectP_inEOS_Zc = /* select pressure to use in EOS (0,1,2,3) */
(PID.TID 0000.0001)                       0
(PID.TID 0000.0001)     0= -g*rhoConst*z ; 1= pRef (from tRef,sRef); 2= Hyd P ; 3= Hyd+NH P
(PID.TID 0000.0001)     ;
(PID.TID 0000.0001) surf_pRef = /* Surface reference pressure ( Pa ) */
(PID.TID 0000.0001)                 1.013250000000000E+05
(PID.TID 0000.0001)     ;
(PID.TID 0000.0001) HeatCapacity_Cp =  /* Specific heat capacity ( J/kg/K ) */
(PID.TID 0000.0001)                 3.994000000000000E+03
(PID.TID 0000.0001)     ;
(PID.TID 0000.0001) celsius2K = /* 0 degree Celsius converted to Kelvin ( K ) */
(PID.TID 0000.0001)                 2.731500000000000E+02
(PID.TID 0000.0001)     ;
(PID.TID 0000.0001) rhoConst  = /* Reference density (Boussinesq)  ( kg/m^3 ) */
(PID.TID 0000.0001)                 1.027000000000000E+03
(PID.TID 0000.0001)     ;
(PID.TID 0000.0001) rhoFacC = /* normalized Reference density @ cell-Center (-) */
(PID.TID 0000.0001)                 1.000000000000000E+00       /* K =  1 */
(PID.TID 0000.0001)     ;
(PID.TID 0000.0001) rhoFacF = /* normalized Reference density @ W-Interface (-) */
(PID.TID 0000.0001)     2 @  1.000000000000000E+00              /* K =  1:  2 */
(PID.TID 0000.0001)     ;
(PID.TID 0000.0001) rhoConstFresh = /* Fresh-water reference density ( kg/m^3 ) */
(PID.TID 0000.0001)                 1.027000000000000E+03
(PID.TID 0000.0001)     ;
(PID.TID 0000.0001) gravity =   /* Gravitational acceleration ( m/s^2 ) */
(PID.TID 0000.0001)                 9.810000000000000E+00
(PID.TID 0000.0001)     ;
(PID.TID 0000.0001) gBaro =   /* Barotropic gravity ( m/s^2 ) */
(PID.TID 0000.0001)                 9.810000000000000E+00
(PID.TID 0000.0001)     ;
(PID.TID 0000.0001) gravFacC = /* gravity factor (vs surf.) @ cell-Center (-) */
(PID.TID 0000.0001)                 1.000000000000000E+00       /* K =  1 */
(PID.TID 0000.0001)     ;
(PID.TID 0000.0001) gravFacF = /* gravity factor (vs surf.) @ W-Interface (-) */
(PID.TID 0000.0001)     2 @  1.000000000000000E+00              /* K =  1:  2 */
(PID.TID 0000.0001)     ;
(PID.TID 0000.0001) rotationPeriod =   /* Rotation Period ( s ) */
(PID.TID 0000.0001)                 8.616400000000000E+04
(PID.TID 0000.0001)     ;
(PID.TID 0000.0001) omega =   /* Angular velocity ( rad/s ) */
(PID.TID 0000.0001)                 7.292123516990375E-05
(PID.TID 0000.0001)     ;
(PID.TID 0000.0001) f0 =   /* Reference coriolis parameter ( 1/s ) */
(PID.TID 0000.0001)                 6.999999999999999E-05
(PID.TID 0000.0001)     ;
(PID.TID 0000.0001) beta =   /* Beta ( 1/(m.s) ) */
(PID.TID 0000.0001)                 2.000000000000000E-11
(PID.TID 0000.0001)     ;
(PID.TID 0000.0001) fPrime =   /* Second coriolis parameter ( 1/s ) */
(PID.TID 0000.0001)                 0.000000000000000E+00
(PID.TID 0000.0001)     ;
(PID.TID 0000.0001) rigidLid =   /* Rigid lid on/off flag */
(PID.TID 0000.0001)                   F
(PID.TID 0000.0001)     ;
(PID.TID 0000.0001) implicitFreeSurface =   /* Implicit free surface on/off flag */
(PID.TID 0000.0001)                   T
(PID.TID 0000.0001)     ;
(PID.TID 0000.0001) freeSurfFac =   /* Implicit free surface factor */
(PID.TID 0000.0001)                 1.000000000000000E+00
(PID.TID 0000.0001)     ;
(PID.TID 0000.0001) implicSurfPress =  /* Surface Pressure implicit factor (0-1)*/
(PID.TID 0000.0001)                 1.000000000000000E+00
(PID.TID 0000.0001)     ;
(PID.TID 0000.0001) implicDiv2DFlow =  /* Barot. Flow Div. implicit factor (0-1)*/
(PID.TID 0000.0001)                 1.000000000000000E+00
(PID.TID 0000.0001)     ;
(PID.TID 0000.0001) uniformLin_PhiSurf = /* use uniform Bo_surf on/off flag*/
(PID.TID 0000.0001)                   T
(PID.TID 0000.0001)     ;
(PID.TID 0000.0001) uniformFreeSurfLev = /* free-surface level-index is uniform */
(PID.TID 0000.0001)                   T
(PID.TID 0000.0001)     ;
(PID.TID 0000.0001) hFacMin =   /* minimum partial cell factor (hFac) */
(PID.TID 0000.0001)                 1.000000000000000E-01
(PID.TID 0000.0001)     ;
(PID.TID 0000.0001) hFacMinDr = /* minimum partial cell thickness ( m) */
(PID.TID 0000.0001)                 0.000000000000000E+00
(PID.TID 0000.0001)     ;
(PID.TID 0000.0001) exactConserv =  /* Exact Volume Conservation on/off flag*/
(PID.TID 0000.0001)                   F
(PID.TID 0000.0001)     ;
(PID.TID 0000.0001) linFSConserveTr = /* Tracer correction for Lin Free Surface on/off flag*/
(PID.TID 0000.0001)                   F
(PID.TID 0000.0001)     ;
(PID.TID 0000.0001) nonlinFreeSurf = /* Non-linear Free Surf. options (-1,0,1,2,3)*/
(PID.TID 0000.0001)                       0
(PID.TID 0000.0001)      -1,0= Off ; 1,2,3= On, 2=+rescale gU,gV, 3=+update cg2d solv.
(PID.TID 0000.0001)     ;
(PID.TID 0000.0001) hFacInf =   /* lower threshold for hFac (nonlinFreeSurf only)*/
(PID.TID 0000.0001)                 2.000000000000000E-01
(PID.TID 0000.0001)     ;
(PID.TID 0000.0001) hFacSup =   /* upper threshold for hFac (nonlinFreeSurf only)*/
(PID.TID 0000.0001)                 2.000000000000000E+00
(PID.TID 0000.0001)     ;
(PID.TID 0000.0001) select_rStar = /* r* Vertical coord. options (=0 r coord.; >0 uses r*)*/
(PID.TID 0000.0001)                       0
(PID.TID 0000.0001)     ;
(PID.TID 0000.0001) useRealFreshWaterFlux = /* Real Fresh Water Flux on/off flag*/
(PID.TID 0000.0001)                   F
(PID.TID 0000.0001)     ;
(PID.TID 0000.0001) temp_EvPrRn = /* Temp. of Evap/Prec/R (UNSET=use local T)(oC)*/
(PID.TID 0000.0001)                 1.234567000000000E+05
(PID.TID 0000.0001)     ;
(PID.TID 0000.0001) salt_EvPrRn = /* Salin. of Evap/Prec/R (UNSET=use local S)(psu)*/
(PID.TID 0000.0001)                 0.000000000000000E+00
(PID.TID 0000.0001)     ;
(PID.TID 0000.0001) selectAddFluid = /* option for mass source/sink of fluid (=0: off) */
(PID.TID 0000.0001)                       0
(PID.TID 0000.0001)     ;
(PID.TID 0000.0001) temp_addMass = /* Temp. of addMass array (UNSET=use local T)(oC)*/
(PID.TID 0000.0001)                 1.234567000000000E+05
(PID.TID 0000.0001)     ;
(PID.TID 0000.0001) salt_addMass = /* Salin. of addMass array (UNSET=use local S)(psu)*/
(PID.TID 0000.0001)                 0.000000000000000E+00
(PID.TID 0000.0001)     ;
(PID.TID 0000.0001) convertFW2Salt = /* convert F.W. Flux to Salt Flux (-1=use local S)(psu)*/
(PID.TID 0000.0001)                 3.500000000000000E+01
(PID.TID 0000.0001)     ;
(PID.TID 0000.0001) use3Dsolver = /* use 3-D pressure solver on/off flag */
(PID.TID 0000.0001)                   F
(PID.TID 0000.0001)     ;
(PID.TID 0000.0001) nonHydrostatic =  /* Non-Hydrostatic on/off flag */
(PID.TID 0000.0001)                   F
(PID.TID 0000.0001)     ;
(PID.TID 0000.0001) nh_Am2 = /* Non-Hydrostatic terms scaling factor */
(PID.TID 0000.0001)                 1.000000000000000E+00
(PID.TID 0000.0001)     ;
(PID.TID 0000.0001) implicitNHPress = /* Non-Hyd Pressure implicit factor (0-1)*/
(PID.TID 0000.0001)                 1.000000000000000E+00
(PID.TID 0000.0001)     ;
(PID.TID 0000.0001) selectNHfreeSurf = /* Non-Hyd (free-)Surface option */
(PID.TID 0000.0001)                       0
(PID.TID 0000.0001)     ;
(PID.TID 0000.0001) quasiHydrostatic = /* Quasi-Hydrostatic on/off flag */
(PID.TID 0000.0001)                   F
(PID.TID 0000.0001)     ;
(PID.TID 0000.0001) calc_wVelocity = /* vertical velocity calculation on/off flag */
(PID.TID 0000.0001)                   T
(PID.TID 0000.0001)     ;
(PID.TID 0000.0001) momStepping =  /* Momentum equation on/off flag */
(PID.TID 0000.0001)                   T
(PID.TID 0000.0001)     ;
(PID.TID 0000.0001) vectorInvariantMomentum= /* Vector-Invariant Momentum on/off */
(PID.TID 0000.0001)                   F
(PID.TID 0000.0001)     ;
(PID.TID 0000.0001) momAdvection =  /* Momentum advection on/off flag */
(PID.TID 0000.0001)                   T
(PID.TID 0000.0001)     ;
(PID.TID 0000.0001) momViscosity =  /* Momentum viscosity on/off flag */
(PID.TID 0000.0001)                   T
(PID.TID 0000.0001)     ;
(PID.TID 0000.0001) momImplVertAdv= /* Momentum implicit vert. advection on/off*/
(PID.TID 0000.0001)                   F
(PID.TID 0000.0001)     ;
(PID.TID 0000.0001) implicitViscosity = /* Implicit viscosity on/off flag */
(PID.TID 0000.0001)                   F
(PID.TID 0000.0001)     ;
(PID.TID 0000.0001) selectImplicitDrag= /* Implicit bot Drag options (0,1,2)*/
(PID.TID 0000.0001)                       0
(PID.TID 0000.0001)     0= Expl. ; 1= Impl. on provis. Vel ; 2= Fully Impl (with surf.P)
(PID.TID 0000.0001)     ;
(PID.TID 0000.0001) metricTerms =  /* metric-Terms on/off flag */
(PID.TID 0000.0001)                   F
(PID.TID 0000.0001)     ;
(PID.TID 0000.0001) useNHMTerms = /* Non-Hydrostatic Metric-Terms on/off */
(PID.TID 0000.0001)                   F
(PID.TID 0000.0001)     ;
(PID.TID 0000.0001) selectCoriMap = /* Coriolis Map options (0,1,2,3)*/
(PID.TID 0000.0001)                       1
(PID.TID 0000.0001)     0= f-Plane ; 1= Beta-Plane ; 2= Spherical ; 3= read from file
(PID.TID 0000.0001)     ;
(PID.TID 0000.0001) use3dCoriolis = /* 3-D Coriolis on/off flag */
(PID.TID 0000.0001)                   F
(PID.TID 0000.0001)     ;
(PID.TID 0000.0001) useCoriolis =  /* Coriolis on/off flag */
(PID.TID 0000.0001)                   T
(PID.TID 0000.0001)     ;
(PID.TID 0000.0001) useCDscheme =  /* CD scheme on/off flag */
(PID.TID 0000.0001)                   F
(PID.TID 0000.0001)     ;
(PID.TID 0000.0001) selectCoriScheme= /* Scheme selector for Coriolis-Term */
(PID.TID 0000.0001)                       0
(PID.TID 0000.0001)    = 0 : original discretization (simple averaging, no hFac)
(PID.TID 0000.0001)    = 1 : Wet-point averaging (Jamar & Ozer 1986)
(PID.TID 0000.0001)    = 2 : energy conserving scheme (no hFac weight)
(PID.TID 0000.0001)    = 3 : energy conserving scheme using Wet-point averaging
(PID.TID 0000.0001)     ;
(PID.TID 0000.0001) momForcing =  /* Momentum forcing on/off flag */
(PID.TID 0000.0001)                   T
(PID.TID 0000.0001)     ;
(PID.TID 0000.0001) momTidalForcing = /* Momentum Tidal forcing on/off flag */
(PID.TID 0000.0001)                   T
(PID.TID 0000.0001)     ;
(PID.TID 0000.0001) momPressureForcing =  /* Momentum pressure term on/off flag */
(PID.TID 0000.0001)                   T
(PID.TID 0000.0001)     ;
(PID.TID 0000.0001) implicitIntGravWave= /* Implicit Internal Gravity Wave flag */
(PID.TID 0000.0001)                   F
(PID.TID 0000.0001)     ;
(PID.TID 0000.0001) staggerTimeStep =    /* Stagger time stepping on/off flag */
(PID.TID 0000.0001)                   F
(PID.TID 0000.0001)     ;
(PID.TID 0000.0001) doResetHFactors = /* reset thickness factors @ each time-step */
(PID.TID 0000.0001)                   F
(PID.TID 0000.0001)     ;
(PID.TID 0000.0001) multiDimAdvection =  /* enable/disable Multi-Dim Advection */
(PID.TID 0000.0001)                   T
(PID.TID 0000.0001)     ;
(PID.TID 0000.0001) useMultiDimAdvec =   /* Multi-Dim Advection is/is-not used */
(PID.TID 0000.0001)                   F
(PID.TID 0000.0001)     ;
(PID.TID 0000.0001) implicitDiffusion = /* Implicit Diffusion on/off flag */
(PID.TID 0000.0001)                   F
(PID.TID 0000.0001)     ;
(PID.TID 0000.0001) tempStepping =  /* Temperature equation on/off flag */
(PID.TID 0000.0001)                   F
(PID.TID 0000.0001)     ;
(PID.TID 0000.0001) tempAdvection = /* Temperature advection on/off flag */
(PID.TID 0000.0001)                   F
(PID.TID 0000.0001)     ;
(PID.TID 0000.0001) tempImplVertAdv = /* Temp. implicit vert. advection on/off */
(PID.TID 0000.0001)                   F
(PID.TID 0000.0001)     ;
(PID.TID 0000.0001) tempForcing  =  /* Temperature forcing on/off flag */
(PID.TID 0000.0001)                   F
(PID.TID 0000.0001)     ;
(PID.TID 0000.0001) doThetaClimRelax = /* apply SST relaxation on/off flag */
(PID.TID 0000.0001)                   F
(PID.TID 0000.0001)     ;
(PID.TID 0000.0001) tempIsActiveTr = /* Temp. is a dynamically Active Tracer */
(PID.TID 0000.0001)                   F
(PID.TID 0000.0001)     ;
(PID.TID 0000.0001) saltStepping =  /* Salinity equation on/off flag */
(PID.TID 0000.0001)                   F
(PID.TID 0000.0001)     ;
(PID.TID 0000.0001) saltAdvection = /* Salinity advection on/off flag */
(PID.TID 0000.0001)                   F
(PID.TID 0000.0001)     ;
(PID.TID 0000.0001) saltImplVertAdv = /* Sali. implicit vert. advection on/off */
(PID.TID 0000.0001)                   F
(PID.TID 0000.0001)     ;
(PID.TID 0000.0001) saltForcing  =  /* Salinity forcing on/off flag */
(PID.TID 0000.0001)                   F
(PID.TID 0000.0001)     ;
(PID.TID 0000.0001) doSaltClimRelax = /* apply SSS relaxation on/off flag */
(PID.TID 0000.0001)                   F
(PID.TID 0000.0001)     ;
(PID.TID 0000.0001) saltIsActiveTr = /* Salt  is a dynamically Active Tracer */
(PID.TID 0000.0001)                   F
(PID.TID 0000.0001)     ;
(PID.TID 0000.0001)  readBinaryPrec = /* Precision used for reading binary files */
(PID.TID 0000.0001)                      32
(PID.TID 0000.0001)     ;
(PID.TID 0000.0001) writeBinaryPrec = /* Precision used for writing binary files */
(PID.TID 0000.0001)                      32
(PID.TID 0000.0001)     ;
(PID.TID 0000.0001)  rwSuffixType =   /* select format of mds file suffix */
(PID.TID 0000.0001)                       0
(PID.TID 0000.0001)    = 0 : myIter (I10.10) ;   = 1 : 100*myTime (100th sec) ;
(PID.TID 0000.0001)    = 2 : myTime (seconds);   = 3 : myTime/360 (10th of hr);
(PID.TID 0000.0001)    = 4 : myTime/3600 (hours)
(PID.TID 0000.0001)     ;
(PID.TID 0000.0001)  globalFiles = /* write "global" (=not per tile) files */
(PID.TID 0000.0001)                   F
(PID.TID 0000.0001)     ;
(PID.TID 0000.0001)  useSingleCpuIO = /* only master MPI process does I/O */
(PID.TID 0000.0001)                   T
(PID.TID 0000.0001)     ;
(PID.TID 0000.0001)  useSingleCpuInput = /* only master process reads input */
(PID.TID 0000.0001)                   T
(PID.TID 0000.0001)     ;
(PID.TID 0000.0001) /* debLev[*]  : level of debug & auxiliary message printing */
(PID.TID 0000.0001) debLevZero =  0 ; /* level of disabled aux. msg printing */
(PID.TID 0000.0001)    debLevA =  1 ; /* level of minimum  aux. msg printing */
(PID.TID 0000.0001)    debLevB =  2 ; /* level of low aux. print (report read-file opening)*/
(PID.TID 0000.0001)    debLevC =  3 ; /* level of moderate debug prt (most pkgs debug msg) */
(PID.TID 0000.0001)    debLevD =  4 ; /* level of enhanced debug prt (add DEBUG_STATS prt) */
(PID.TID 0000.0001)    debLevE =  5 ; /* level of extensive debug printing */
(PID.TID 0000.0001) debugLevel =  /* select debug printing level */
(PID.TID 0000.0001)                       2
(PID.TID 0000.0001)     ;
(PID.TID 0000.0001)  plotLevel =  /* select PLOT_FIELD printing level */
(PID.TID 0000.0001)                       2
(PID.TID 0000.0001)     ;
(PID.TID 0000.0001) //
(PID.TID 0000.0001) // Elliptic solver(s) paramters ( PARM02 in namelist )
(PID.TID 0000.0001) //
(PID.TID 0000.0001) cg2dMaxIters =   /* Upper limit on 2d con. grad iterations  */
(PID.TID 0000.0001)                    1000
(PID.TID 0000.0001)     ;
(PID.TID 0000.0001) cg2dChkResFreq =   /* 2d con. grad convergence test frequency */
(PID.TID 0000.0001)                       1
(PID.TID 0000.0001)     ;
(PID.TID 0000.0001) cg2dUseMinResSol= /* use cg2d last-iter(=0) / min-resid.(=1) solution */
(PID.TID 0000.0001)                       0
(PID.TID 0000.0001)     ;
(PID.TID 0000.0001) cg2dTargetResidual =   /* 2d con. grad target residual  */
(PID.TID 0000.0001)                 1.000000000000000E-07
(PID.TID 0000.0001)     ;
(PID.TID 0000.0001) cg2dTargetResWunit =   /* CG2d target residual [W units] */
(PID.TID 0000.0001)                -1.000000000000000E+00
(PID.TID 0000.0001)     ;
(PID.TID 0000.0001) cg2dPreCondFreq =   /* Freq. for updating cg2d preconditioner */
(PID.TID 0000.0001)                       1
(PID.TID 0000.0001)     ;
(PID.TID 0000.0001) useSRCGSolver =  /* use single reduction CG solver(s) */
(PID.TID 0000.0001)                   F
(PID.TID 0000.0001)     ;
(PID.TID 0000.0001) printResidualFreq = /* Freq. for printing CG residual */
(PID.TID 0000.0001)                       0
(PID.TID 0000.0001)     ;
(PID.TID 0000.0001) //
(PID.TID 0000.0001) // Time stepping paramters ( PARM03 in namelist )
(PID.TID 0000.0001) //
(PID.TID 0000.0001) deltaTMom =   /* Momentum equation timestep ( s ) */
(PID.TID 0000.0001)                 5.400000000000000E+03
(PID.TID 0000.0001)     ;
(PID.TID 0000.0001) deltaTFreeSurf = /* FreeSurface equation timestep ( s ) */
(PID.TID 0000.0001)                 5.400000000000000E+03
(PID.TID 0000.0001)     ;
(PID.TID 0000.0001) dTtracerLev =  /* Tracer equation timestep ( s ) */
(PID.TID 0000.0001)                 5.400000000000000E+03       /* K =  1 */
(PID.TID 0000.0001)     ;
(PID.TID 0000.0001) deltaTClock  =   /* Model clock timestep ( s ) */
(PID.TID 0000.0001)                 5.400000000000000E+03
(PID.TID 0000.0001)     ;
(PID.TID 0000.0001) cAdjFreq =   /* Convective adjustment interval ( s ) */
(PID.TID 0000.0001)                 0.000000000000000E+00
(PID.TID 0000.0001)     ;
(PID.TID 0000.0001) momForcingOutAB = /* =1: take Momentum Forcing out of Adams-Bash. stepping */
(PID.TID 0000.0001)                       0
(PID.TID 0000.0001)     ;
(PID.TID 0000.0001) tracForcingOutAB = /* =1: take T,S,pTr Forcing out of Adams-Bash. stepping */
(PID.TID 0000.0001)                       0
(PID.TID 0000.0001)     ;
(PID.TID 0000.0001) momDissip_In_AB = /* put Dissipation Tendency in Adams-Bash. stepping */
(PID.TID 0000.0001)                   T
(PID.TID 0000.0001)     ;
(PID.TID 0000.0001) doAB_onGtGs = /* apply AB on Tendencies (rather than on T,S)*/
(PID.TID 0000.0001)                   T
(PID.TID 0000.0001)     ;
(PID.TID 0000.0001) abEps =   /* Adams-Bashforth-2 stabilizing weight */
(PID.TID 0000.0001)                 1.000000000000000E-02
(PID.TID 0000.0001)     ;
(PID.TID 0000.0001) applyExchUV_early = /* Apply EXCH to U,V earlier in time-step */
(PID.TID 0000.0001)                   F
(PID.TID 0000.0001)     ;
(PID.TID 0000.0001) pickupStrictlyMatch= /* stop if pickup do not strictly match */
(PID.TID 0000.0001)                   T
(PID.TID 0000.0001)     ;
(PID.TID 0000.0001) nIter0   =   /* Run starting timestep number */
(PID.TID 0000.0001)                       0
(PID.TID 0000.0001)     ;
(PID.TID 0000.0001) nTimeSteps = /* Number of timesteps */
(PID.TID 0000.0001)                    5824
(PID.TID 0000.0001)     ;
(PID.TID 0000.0001) nEndIter =   /* Run ending timestep number */
(PID.TID 0000.0001)                    5824
(PID.TID 0000.0001)     ;
(PID.TID 0000.0001) baseTime =   /* Model base time ( s ) */
(PID.TID 0000.0001)                 0.000000000000000E+00
(PID.TID 0000.0001)     ;
(PID.TID 0000.0001) startTime =  /* Run start time ( s ) */
(PID.TID 0000.0001)                 0.000000000000000E+00
(PID.TID 0000.0001)     ;
(PID.TID 0000.0001) endTime  =   /* Integration ending time ( s ) */
(PID.TID 0000.0001)                 3.144960000000000E+07
(PID.TID 0000.0001)     ;
(PID.TID 0000.0001) pChkPtFreq = /* Permanent restart/pickup file interval ( s ) */
(PID.TID 0000.0001)                 3.110400000000000E+07
(PID.TID 0000.0001)     ;
(PID.TID 0000.0001) chkPtFreq  = /* Rolling restart/pickup file interval ( s ) */
(PID.TID 0000.0001)                 2.592000000000000E+07
(PID.TID 0000.0001)     ;
(PID.TID 0000.0001) pickup_write_mdsio =   /* Model IO flag. */
(PID.TID 0000.0001)                   T
(PID.TID 0000.0001)     ;
(PID.TID 0000.0001) pickup_read_mdsio =   /* Model IO flag. */
(PID.TID 0000.0001)                   T
(PID.TID 0000.0001)     ;
(PID.TID 0000.0001) writePickupAtEnd =   /* Model IO flag. */
(PID.TID 0000.0001)                   T
(PID.TID 0000.0001)     ;
(PID.TID 0000.0001) dumpFreq =   /* Model state write out interval ( s ). */
(PID.TID 0000.0001)                 8.640000000000000E+05
(PID.TID 0000.0001)     ;
(PID.TID 0000.0001) dumpInitAndLast= /* write out Initial & Last iter. model state */
(PID.TID 0000.0001)                   T
(PID.TID 0000.0001)     ;
(PID.TID 0000.0001) snapshot_mdsio =   /* Model IO flag. */
(PID.TID 0000.0001)                   T
(PID.TID 0000.0001)     ;
(PID.TID 0000.0001) monitorFreq =   /* Monitor output interval ( s ). */
(PID.TID 0000.0001)                 8.640000000000000E+04
(PID.TID 0000.0001)     ;
(PID.TID 0000.0001) monitorSelect = /* select group of variables to monitor */
(PID.TID 0000.0001)                       2
(PID.TID 0000.0001)     ;
(PID.TID 0000.0001) monitor_stdio =   /* Model IO flag. */
(PID.TID 0000.0001)                   T
(PID.TID 0000.0001)     ;
(PID.TID 0000.0001) externForcingPeriod =   /* forcing period (s) */
(PID.TID 0000.0001)                 0.000000000000000E+00
(PID.TID 0000.0001)     ;
(PID.TID 0000.0001) externForcingCycle =   /* period of the cyle (s). */
(PID.TID 0000.0001)                 0.000000000000000E+00
(PID.TID 0000.0001)     ;
(PID.TID 0000.0001) tauThetaClimRelax =   /* relaxation time scale (s) */
(PID.TID 0000.0001)                 0.000000000000000E+00
(PID.TID 0000.0001)     ;
(PID.TID 0000.0001) tauSaltClimRelax =   /* relaxation time scale (s) */
(PID.TID 0000.0001)                 0.000000000000000E+00
(PID.TID 0000.0001)     ;
(PID.TID 0000.0001) latBandClimRelax =   /* max. Lat. where relaxation */
(PID.TID 0000.0001)                 3.720000000000000E+06
(PID.TID 0000.0001)     ;
(PID.TID 0000.0001) //
(PID.TID 0000.0001) // Gridding paramters ( PARM04 in namelist )
(PID.TID 0000.0001) //
(PID.TID 0000.0001) usingCartesianGrid = /* Cartesian coordinates flag ( True/False ) */
(PID.TID 0000.0001)                   T
(PID.TID 0000.0001)     ;
(PID.TID 0000.0001) usingCylindricalGrid = /* Cylindrical coordinates flag ( True/False ) */
(PID.TID 0000.0001)                   F
(PID.TID 0000.0001)     ;
(PID.TID 0000.0001) usingSphericalPolarGrid = /* Spherical coordinates flag ( True/False ) */
(PID.TID 0000.0001)                   F
(PID.TID 0000.0001)     ;
(PID.TID 0000.0001) usingCurvilinearGrid = /* Curvilinear coordinates flag ( True/False ) */
(PID.TID 0000.0001)                   F
(PID.TID 0000.0001)     ;
(PID.TID 0000.0001) useMin4hFacEdges = /* set hFacW,S as minimum of adjacent hFacC factor */
(PID.TID 0000.0001)                   F
(PID.TID 0000.0001)     ;
(PID.TID 0000.0001) interViscAr_pCell = /* account for partial-cell in interior vert. viscosity */
(PID.TID 0000.0001)                   F
(PID.TID 0000.0001)     ;
(PID.TID 0000.0001) interDiffKr_pCell = /* account for partial-cell in interior vert. diffusion */
(PID.TID 0000.0001)                   F
(PID.TID 0000.0001)     ;
(PID.TID 0000.0001) pCellMix_select = /* option to enhance mixing near surface & bottom */
(PID.TID 0000.0001)                       0
(PID.TID 0000.0001)     ;
(PID.TID 0000.0001) selectSigmaCoord = /* Hybrid-Sigma Vert. Coordinate option */
(PID.TID 0000.0001)                       0
(PID.TID 0000.0001)     ;
(PID.TID 0000.0001) rSigmaBnd = /* r/sigma transition ( units of r ==  m ) */
(PID.TID 0000.0001)                 1.234567000000000E+05
(PID.TID 0000.0001)     ;
(PID.TID 0000.0001) rkSign =   /* index orientation relative to vertical coordinate */
(PID.TID 0000.0001)                -1.000000000000000E+00
(PID.TID 0000.0001)     ;
(PID.TID 0000.0001) gravitySign = /* gravity orientation relative to vertical coordinate */
(PID.TID 0000.0001)                -1.000000000000000E+00
(PID.TID 0000.0001)     ;
(PID.TID 0000.0001) seaLev_Z =  /* reference height of sea-level [m] */
(PID.TID 0000.0001)                 0.000000000000000E+00
(PID.TID 0000.0001)     ;
(PID.TID 0000.0001) top_Pres =  /* reference pressure at the top [Pa] */
(PID.TID 0000.0001)                 0.000000000000000E+00
(PID.TID 0000.0001)     ;
(PID.TID 0000.0001) mass2rUnit = /* convert mass per unit area [kg/m2] to r-units [m] */
(PID.TID 0000.0001)                 9.737098344693282E-04
(PID.TID 0000.0001)     ;
(PID.TID 0000.0001) rUnit2mass = /* convert r-units [m] to mass per unit area [kg/m2] */
(PID.TID 0000.0001)                 1.027000000000000E+03
(PID.TID 0000.0001)     ;
(PID.TID 0000.0001) drC =   /* C spacing ( units of r ) */
(PID.TID 0000.0001)     2 @  2.500000000000000E+03              /* K =  1:  2 */
(PID.TID 0000.0001)     ;
(PID.TID 0000.0001) drF =   /* W spacing ( units of r ) */
(PID.TID 0000.0001)                 5.000000000000000E+03       /* K =  1 */
(PID.TID 0000.0001)     ;
(PID.TID 0000.0001) delX = /* U spacing ( m - cartesian, degrees - spherical ) */
(PID.TID 0000.0001)   248 @  5.000000000000000E+03              /* I =  1:248 */
(PID.TID 0000.0001)     ;
(PID.TID 0000.0001) delY = /* V spacing ( m - cartesian, degrees - spherical ) */
(PID.TID 0000.0001)   248 @  5.000000000000000E+03              /* J =  1:248 */
(PID.TID 0000.0001)     ;
(PID.TID 0000.0001) xgOrigin = /* X-axis origin of West  edge (cartesian: m, lat-lon: deg) */
(PID.TID 0000.0001)                -5.000000000000000E+03
(PID.TID 0000.0001)     ;
(PID.TID 0000.0001) ygOrigin = /* Y-axis origin of South edge (cartesian: m, lat-lon: deg) */
(PID.TID 0000.0001)                -5.000000000000000E+03
(PID.TID 0000.0001)     ;
(PID.TID 0000.0001) rSphere =  /* Radius ( ignored - cartesian, m - spherical ) */
(PID.TID 0000.0001)                 6.370000000000000E+06
(PID.TID 0000.0001)     ;
(PID.TID 0000.0001) deepAtmosphere = /* Deep/Shallow Atmosphere flag (True/False) */
(PID.TID 0000.0001)                   F
(PID.TID 0000.0001)     ;
(PID.TID 0000.0001) xC =  /* xC(:,1,:,1) : P-point X coord ( deg. or m if cartesian) */
(PID.TID 0000.0001)                -2.500000000000000E+03,      /* I =  1 */
(PID.TID 0000.0001)                 2.500000000000000E+03,      /* I =  2 */
(PID.TID 0000.0001)                 7.500000000000000E+03,      /* I =  3 */
(PID.TID 0000.0001)      . . .
(PID.TID 0000.0001)                 2.925000000000000E+05,      /* I = 60 */
(PID.TID 0000.0001)                 2.975000000000000E+05,      /* I = 61 */
(PID.TID 0000.0001)                 3.025000000000000E+05,      /* I = 62 */
(PID.TID 0000.0001)                 3.075000000000000E+05,      /* I = 63 */
(PID.TID 0000.0001)                 3.125000000000000E+05,      /* I = 64 */
(PID.TID 0000.0001)                 3.175000000000000E+05,      /* I = 65 */
(PID.TID 0000.0001)      . . .
(PID.TID 0000.0001)                 6.025000000000000E+05,      /* I =122 */
(PID.TID 0000.0001)                 6.075000000000000E+05,      /* I =123 */
(PID.TID 0000.0001)                 6.125000000000000E+05,      /* I =124 */
(PID.TID 0000.0001)                 6.175000000000000E+05,      /* I =125 */
(PID.TID 0000.0001)                 6.225000000000000E+05,      /* I =126 */
(PID.TID 0000.0001)                 6.275000000000000E+05,      /* I =127 */
(PID.TID 0000.0001)      . . .
(PID.TID 0000.0001)                 9.125000000000000E+05,      /* I =184 */
(PID.TID 0000.0001)                 9.175000000000000E+05,      /* I =185 */
(PID.TID 0000.0001)                 9.225000000000000E+05,      /* I =186 */
(PID.TID 0000.0001)                 9.275000000000000E+05,      /* I =187 */
(PID.TID 0000.0001)                 9.325000000000000E+05,      /* I =188 */
(PID.TID 0000.0001)                 9.375000000000000E+05,      /* I =189 */
(PID.TID 0000.0001)      . . .
(PID.TID 0000.0001)                 1.222500000000000E+06,      /* I =246 */
(PID.TID 0000.0001)                 1.227500000000000E+06,      /* I =247 */
(PID.TID 0000.0001)                 1.232500000000000E+06       /* I =248 */
(PID.TID 0000.0001)     ;
(PID.TID 0000.0001) yC =  /* yC(1,:,1,:) : P-point Y coord ( deg. or m if cartesian) */
(PID.TID 0000.0001)                -2.500000000000000E+03,      /* J =  1 */
(PID.TID 0000.0001)                 2.500000000000000E+03,      /* J =  2 */
(PID.TID 0000.0001)                 7.500000000000000E+03,      /* J =  3 */
(PID.TID 0000.0001)      . . .
(PID.TID 0000.0001)                 2.925000000000000E+05,      /* J = 60 */
(PID.TID 0000.0001)                 2.975000000000000E+05,      /* J = 61 */
(PID.TID 0000.0001)                 3.025000000000000E+05,      /* J = 62 */
(PID.TID 0000.0001)                 3.075000000000000E+05,      /* J = 63 */
(PID.TID 0000.0001)                 3.125000000000000E+05,      /* J = 64 */
(PID.TID 0000.0001)                 3.175000000000000E+05,      /* J = 65 */
(PID.TID 0000.0001)      . . .
(PID.TID 0000.0001)                 6.025000000000000E+05,      /* J =122 */
(PID.TID 0000.0001)                 6.075000000000000E+05,      /* J =123 */
(PID.TID 0000.0001)                 6.125000000000000E+05,      /* J =124 */
(PID.TID 0000.0001)                 6.175000000000000E+05,      /* J =125 */
(PID.TID 0000.0001)                 6.225000000000000E+05,      /* J =126 */
(PID.TID 0000.0001)                 6.275000000000000E+05,      /* J =127 */
(PID.TID 0000.0001)      . . .
(PID.TID 0000.0001)                 9.125000000000000E+05,      /* J =184 */
(PID.TID 0000.0001)                 9.175000000000000E+05,      /* J =185 */
(PID.TID 0000.0001)                 9.225000000000000E+05,      /* J =186 */
(PID.TID 0000.0001)                 9.275000000000000E+05,      /* J =187 */
(PID.TID 0000.0001)                 9.325000000000000E+05,      /* J =188 */
(PID.TID 0000.0001)                 9.375000000000000E+05,      /* J =189 */
(PID.TID 0000.0001)      . . .
(PID.TID 0000.0001)                 1.222500000000000E+06,      /* J =246 */
(PID.TID 0000.0001)                 1.227500000000000E+06,      /* J =247 */
(PID.TID 0000.0001)                 1.232500000000000E+06       /* J =248 */
(PID.TID 0000.0001)     ;
(PID.TID 0000.0001) rcoord = /* P-point R coordinate (  units of r ) */
(PID.TID 0000.0001)                -2.500000000000000E+03       /* K =  1 */
(PID.TID 0000.0001)     ;
(PID.TID 0000.0001) rF =   /* W-Interf. R coordinate (  units of r ) */
(PID.TID 0000.0001)                 0.000000000000000E+00,      /* K =  1 */
(PID.TID 0000.0001)                -5.000000000000000E+03       /* K =  2 */
(PID.TID 0000.0001)     ;
(PID.TID 0000.0001) deepFacC = /* deep-model grid factor @ cell-Center (-) */
(PID.TID 0000.0001)                 1.000000000000000E+00       /* K =  1 */
(PID.TID 0000.0001)     ;
(PID.TID 0000.0001) deepFacF = /* deep-model grid factor @ W-Interface (-) */
(PID.TID 0000.0001)     2 @  1.000000000000000E+00              /* K =  1:  2 */
(PID.TID 0000.0001)     ;
(PID.TID 0000.0001) rVel2wUnit = /* convert units: rVel -> wSpeed (=1 if z-coord)*/
(PID.TID 0000.0001)     2 @  1.000000000000000E+00              /* K =  1:  2 */
(PID.TID 0000.0001)     ;
(PID.TID 0000.0001) wUnit2rVel = /* convert units: wSpeed -> rVel (=1 if z-coord)*/
(PID.TID 0000.0001)     2 @  1.000000000000000E+00              /* K =  1:  2 */
(PID.TID 0000.0001)     ;
(PID.TID 0000.0001) dBdrRef = /* Vertical grad. of reference buoyancy [(m/s/r)^2] */
(PID.TID 0000.0001)                 0.000000000000000E+00       /* K =  1 */
(PID.TID 0000.0001)     ;
(PID.TID 0000.0001) rotateGrid = /* use rotated grid ( True/False ) */
(PID.TID 0000.0001)                   F
(PID.TID 0000.0001)     ;
(PID.TID 0000.0001) phiEuler = /* Euler angle, rotation about original z-coordinate [rad] */
(PID.TID 0000.0001)                 0.000000000000000E+00
(PID.TID 0000.0001)     ;
(PID.TID 0000.0001) thetaEuler = /* Euler angle, rotation about new x-coordinate [rad] */
(PID.TID 0000.0001)                 0.000000000000000E+00
(PID.TID 0000.0001)     ;
(PID.TID 0000.0001) psiEuler = /* Euler angle, rotation about new z-coordinate [rad] */
(PID.TID 0000.0001)                 0.000000000000000E+00
(PID.TID 0000.0001)     ;
(PID.TID 0000.0001) dxF =  /* dxF(:,1,:,1) ( units: m ) */
(PID.TID 0000.0001)   248 @  5.000000000000000E+03              /* I =  1:248 */
(PID.TID 0000.0001)     ;
(PID.TID 0000.0001) dxF =  /* dxF(1,:,1,:) ( units: m ) */
(PID.TID 0000.0001)   248 @  5.000000000000000E+03              /* J =  1:248 */
(PID.TID 0000.0001)     ;
(PID.TID 0000.0001) dyF =  /* dyF(:,1,:,1) ( units: m ) */
(PID.TID 0000.0001)   248 @  5.000000000000000E+03              /* I =  1:248 */
(PID.TID 0000.0001)     ;
(PID.TID 0000.0001) dyF =  /* dyF(1,:,1,:) ( units: m ) */
(PID.TID 0000.0001)   248 @  5.000000000000000E+03              /* J =  1:248 */
(PID.TID 0000.0001)     ;
(PID.TID 0000.0001) dxG =  /* dxG(:,1,:,1) ( units: m ) */
(PID.TID 0000.0001)   248 @  5.000000000000000E+03              /* I =  1:248 */
(PID.TID 0000.0001)     ;
(PID.TID 0000.0001) dxG =  /* dxG(1,:,1,:) ( units: m ) */
(PID.TID 0000.0001)   248 @  5.000000000000000E+03              /* J =  1:248 */
(PID.TID 0000.0001)     ;
(PID.TID 0000.0001) dyG =  /* dyG(:,1,:,1) ( units: m ) */
(PID.TID 0000.0001)   248 @  5.000000000000000E+03              /* I =  1:248 */
(PID.TID 0000.0001)     ;
(PID.TID 0000.0001) dyG =  /* dyG(1,:,1,:) ( units: m ) */
(PID.TID 0000.0001)   248 @  5.000000000000000E+03              /* J =  1:248 */
(PID.TID 0000.0001)     ;
(PID.TID 0000.0001) dxC =  /* dxC(:,1,:,1) ( units: m ) */
(PID.TID 0000.0001)   248 @  5.000000000000000E+03              /* I =  1:248 */
(PID.TID 0000.0001)     ;
(PID.TID 0000.0001) dxC =  /* dxC(1,:,1,:) ( units: m ) */
(PID.TID 0000.0001)   248 @  5.000000000000000E+03              /* J =  1:248 */
(PID.TID 0000.0001)     ;
(PID.TID 0000.0001) dyC =  /* dyC(:,1,:,1) ( units: m ) */
(PID.TID 0000.0001)   248 @  5.000000000000000E+03              /* I =  1:248 */
(PID.TID 0000.0001)     ;
(PID.TID 0000.0001) dyC =  /* dyC(1,:,1,:) ( units: m ) */
(PID.TID 0000.0001)   248 @  5.000000000000000E+03              /* J =  1:248 */
(PID.TID 0000.0001)     ;
(PID.TID 0000.0001) dxV =  /* dxV(:,1,:,1) ( units: m ) */
(PID.TID 0000.0001)   248 @  5.000000000000000E+03              /* I =  1:248 */
(PID.TID 0000.0001)     ;
(PID.TID 0000.0001) dxV =  /* dxV(1,:,1,:) ( units: m ) */
(PID.TID 0000.0001)   248 @  5.000000000000000E+03              /* J =  1:248 */
(PID.TID 0000.0001)     ;
(PID.TID 0000.0001) dyU =  /* dyU(:,1,:,1) ( units: m ) */
(PID.TID 0000.0001)   248 @  5.000000000000000E+03              /* I =  1:248 */
(PID.TID 0000.0001)     ;
(PID.TID 0000.0001) dyU =  /* dyU(1,:,1,:) ( units: m ) */
(PID.TID 0000.0001)   248 @  5.000000000000000E+03              /* J =  1:248 */
(PID.TID 0000.0001)     ;
(PID.TID 0000.0001) rA  =  /* rA (:,1,:,1) ( units: m^2 ) */
(PID.TID 0000.0001)   248 @  2.500000000000000E+07              /* I =  1:248 */
(PID.TID 0000.0001)     ;
(PID.TID 0000.0001) rA  =  /* rA (1,:,1,:) ( units: m^2 ) */
(PID.TID 0000.0001)   248 @  2.500000000000000E+07              /* J =  1:248 */
(PID.TID 0000.0001)     ;
(PID.TID 0000.0001) rAw =  /* rAw(:,1,:,1) ( units: m^2 ) */
(PID.TID 0000.0001)   248 @  2.500000000000000E+07              /* I =  1:248 */
(PID.TID 0000.0001)     ;
(PID.TID 0000.0001) rAw =  /* rAw(1,:,1,:) ( units: m^2 ) */
(PID.TID 0000.0001)   248 @  2.500000000000000E+07              /* J =  1:248 */
(PID.TID 0000.0001)     ;
(PID.TID 0000.0001) rAs =  /* rAs(:,1,:,1) ( units: m^2 ) */
(PID.TID 0000.0001)   248 @  2.500000000000000E+07              /* I =  1:248 */
(PID.TID 0000.0001)     ;
(PID.TID 0000.0001) rAs =  /* rAs(1,:,1,:) ( units: m^2 ) */
(PID.TID 0000.0001)   248 @  2.500000000000000E+07              /* J =  1:248 */
(PID.TID 0000.0001)     ;
(PID.TID 0000.0001) globalArea = /* Integrated horizontal Area (m^2) */
(PID.TID 0000.0001)                 1.512900000000000E+12
(PID.TID 0000.0001)     ;
(PID.TID 0000.0001) // =======================================================
(PID.TID 0000.0001) // End of Model config. summary
(PID.TID 0000.0001) // =======================================================
(PID.TID 0000.0001) 
(PID.TID 0000.0001) == Packages configuration : Check & print summary ==
(PID.TID 0000.0001) 
(PID.TID 0000.0001) // =======================================================
(PID.TID 0000.0001) // Check Model config. (CONFIG_CHECK):
(PID.TID 0000.0001) // CONFIG_CHECK : Normal End
(PID.TID 0000.0001) // =======================================================
(PID.TID 0000.0001) 
(PID.TID 0000.0001)  MDS_READ_FIELD: opening global file: u.bin
(PID.TID 0000.0001)  MDS_READ_FIELD: opening global file: v.bin
(PID.TID 0000.0001) Start initial hydrostatic pressure computation
(PID.TID 0000.0001) Pressure is predetermined for buoyancyRelation OCEANIC
(PID.TID 0000.0001) 
(PID.TID 0000.0001) // =======================================================
(PID.TID 0000.0001) // Model current state
(PID.TID 0000.0001) // =======================================================
(PID.TID 0000.0001) 
(PID.TID 0000.0001) // =======================================================
(PID.TID 0000.0001) // Begin MONITOR dynamic field statistics
(PID.TID 0000.0001) // =======================================================
(PID.TID 0000.0001) %MON time_tsnumber                =                     0
(PID.TID 0000.0001) %MON time_secondsf                =   0.0000000000000E+00
(PID.TID 0000.0001) %MON dynstat_eta_max              =   0.0000000000000E+00
(PID.TID 0000.0001) %MON dynstat_eta_min              =   0.0000000000000E+00
(PID.TID 0000.0001) %MON dynstat_eta_mean             =   0.0000000000000E+00
(PID.TID 0000.0001) %MON dynstat_eta_sd               =   0.0000000000000E+00
(PID.TID 0000.0001) %MON dynstat_eta_del2             =   0.0000000000000E+00
(PID.TID 0000.0001) %MON dynstat_uvel_max             =   3.5192829091102E-04
(PID.TID 0000.0001) %MON dynstat_uvel_min             =  -3.4354481613263E-04
(PID.TID 0000.0001) %MON dynstat_uvel_mean            =  -5.3612772165058E-09
(PID.TID 0000.0001) %MON dynstat_uvel_sd              =   3.9878642121504E-05
(PID.TID 0000.0001) %MON dynstat_uvel_del2            =   6.8040351021122E-07
(PID.TID 0000.0001) %MON dynstat_vvel_max             =   3.2325918436982E-04
(PID.TID 0000.0001) %MON dynstat_vvel_min             =  -3.4682056866586E-04
(PID.TID 0000.0001) %MON dynstat_vvel_mean            =   1.3309303931852E-09
(PID.TID 0000.0001) %MON dynstat_vvel_sd              =   3.9935768199217E-05
(PID.TID 0000.0001) %MON dynstat_vvel_del2            =   6.8164243667077E-07
(PID.TID 0000.0001) %MON dynstat_wvel_max             =   2.3698583754594E-04
(PID.TID 0000.0001) %MON dynstat_wvel_min             =  -2.5576111784176E-04
(PID.TID 0000.0001) %MON dynstat_wvel_mean            =   8.6182272751779E-24
(PID.TID 0000.0001) %MON dynstat_wvel_sd              =   4.0087232542732E-05
(PID.TID 0000.0001) %MON dynstat_wvel_del2            =   6.6189891607988E-07
(PID.TID 0000.0001) %MON dynstat_theta_max            =   2.0000000000000E+01
(PID.TID 0000.0001) %MON dynstat_theta_min            =   2.0000000000000E+01
(PID.TID 0000.0001) %MON dynstat_theta_mean           =   2.0000000000000E+01
(PID.TID 0000.0001) %MON dynstat_theta_sd             =   0.0000000000000E+00
(PID.TID 0000.0001) %MON dynstat_theta_del2           =   0.0000000000000E+00
(PID.TID 0000.0001) %MON dynstat_salt_max             =   3.0000000000000E+01
(PID.TID 0000.0001) %MON dynstat_salt_min             =   3.0000000000000E+01
(PID.TID 0000.0001) %MON dynstat_salt_mean            =   3.0000000000000E+01
(PID.TID 0000.0001) %MON dynstat_salt_sd              =   0.0000000000000E+00
(PID.TID 0000.0001) %MON dynstat_salt_del2            =   0.0000000000000E+00
(PID.TID 0000.0001) %MON trAdv_CFL_u_max              =   0.0000000000000E+00
(PID.TID 0000.0001) %MON trAdv_CFL_v_max              =   0.0000000000000E+00
(PID.TID 0000.0001) %MON trAdv_CFL_w_max              =   0.0000000000000E+00
(PID.TID 0000.0001) %MON advcfl_uvel_max              =   3.8008255418390E-04
(PID.TID 0000.0001) %MON advcfl_vvel_max              =   3.7456621415913E-04
(PID.TID 0000.0001) %MON advcfl_wvel_max              =   5.5244401453820E-04
(PID.TID 0000.0001) %MON advcfl_W_hf_max              =   0.0000000000000E+00
(PID.TID 0000.0001) %MON pe_b_mean                    =   0.0000000000000E+00
(PID.TID 0000.0001) %MON ke_max                       =   6.1057796905056E-08
(PID.TID 0000.0001) %MON ke_mean                      =   1.5861119285765E-09
(PID.TID 0000.0001) %MON ke_vol                       =   7.5645000000000E+15
(PID.TID 0000.0001) %MON vort_r_min                   =  -2.2172964818310E-07
(PID.TID 0000.0001) %MON vort_r_max                   =   1.9719122792594E-07
(PID.TID 0000.0001) %MON vort_a_mean                  =   8.2299999999999E-05
(PID.TID 0000.0001) %MON vort_a_sd                    =   7.1297980687894E-06
(PID.TID 0000.0001) %MON vort_p_mean                  =   8.3303658536585E-05
(PID.TID 0000.0001) %MON vort_p_sd                    =   1.7411403312299E-05
(PID.TID 0000.0001) %MON surfExpan_theta_mean         =   7.6948457814089E-23
(PID.TID 0000.0001) %MON surfExpan_salt_mean          =   2.1160825898874E-22
(PID.TID 0000.0001) // =======================================================
(PID.TID 0000.0001) // End MONITOR dynamic field statistics
(PID.TID 0000.0001) // =======================================================
(PID.TID 0000.0001) SOLVE_FOR_PRESSURE: putPmEinXvector =    F
 cg2d: Sum(rhs),rhsMax =   2.08166817117217E-15  1.57908318969395E-04
 cg2d: Sum(rhs),rhsMax =   7.81213174705364E-09  6.65450771566998E-05
 cg2d: Sum(rhs),rhsMax =   9.30980804253467E-09  3.52263244851917E-05
 cg2d: Sum(rhs),rhsMax =   1.91944018249068E-08  2.72112151687911E-05
 cg2d: Sum(rhs),rhsMax =   2.86957733703491E-08  2.11086987026862E-05
 cg2d: Sum(rhs),rhsMax =   4.75854361192685E-08  1.64436976085643E-05
 cg2d: Sum(rhs),rhsMax =   6.90254657216560E-08  1.33894363355717E-05
 cg2d: Sum(rhs),rhsMax =   1.07693287058896E-07  1.09017123419015E-05
 cg2d: Sum(rhs),rhsMax =   1.56281548938098E-07  8.99920900963246E-06
 cg2d: Sum(rhs),rhsMax =   3.11855543675549E-06  7.46022504256057E-06
 cg2d: Sum(rhs),rhsMax =   5.76541495732330E-06  6.29852722628471E-06
 cg2d: Sum(rhs),rhsMax =   8.01499713823373E-06  5.35704626373791E-06
 cg2d: Sum(rhs),rhsMax =   9.81110493078474E-06  4.57913050117371E-06
 cg2d: Sum(rhs),rhsMax =   1.10753392745036E-05  3.93859501074898E-06
 cg2d: Sum(rhs),rhsMax =   1.17520899517998E-05  3.40556327486231E-06
 cg2d: Sum(rhs),rhsMax =   1.17771826974172E-05  2.96095572093995E-06
(PID.TID 0000.0001)      cg2d_init_res =   5.60715478927449E+00
(PID.TID 0000.0001)      cg2d_iters(min,last) =      -1     413
(PID.TID 0000.0001)      cg2d_last_res =   9.69634446258833E-08
(PID.TID 0000.0001) // =======================================================
(PID.TID 0000.0001) // Begin MONITOR dynamic field statistics
(PID.TID 0000.0001) // =======================================================
(PID.TID 0000.0001) %MON time_tsnumber                =                    16
(PID.TID 0000.0001) %MON time_secondsf                =   8.6400000000000E+04
(PID.TID 0000.0001) %MON dynstat_eta_max              =   2.6709966895807E-07
(PID.TID 0000.0001) %MON dynstat_eta_min              =  -3.3581495271404E-07
(PID.TID 0000.0001) %MON dynstat_eta_mean             =  -2.7675944354298E-12
(PID.TID 0000.0001) %MON dynstat_eta_sd               =   6.1663484492791E-08
(PID.TID 0000.0001) %MON dynstat_eta_del2             =   1.7336294091307E-10
(PID.TID 0000.0001) %MON dynstat_uvel_max             =   5.1859951287765E-06
(PID.TID 0000.0001) %MON dynstat_uvel_min             =  -4.6628991765008E-06
(PID.TID 0000.0001) %MON dynstat_uvel_mean            =   2.5280577384489E-12
(PID.TID 0000.0001) %MON dynstat_uvel_sd              =   8.7578271010169E-07
(PID.TID 0000.0001) %MON dynstat_uvel_del2            =   4.5850942719682E-09
(PID.TID 0000.0001) %MON dynstat_vvel_max             =   4.9319192340995E-06
(PID.TID 0000.0001) %MON dynstat_vvel_min             =  -5.6255004913426E-06
(PID.TID 0000.0001) %MON dynstat_vvel_mean            =   4.7919510562143E-12
(PID.TID 0000.0001) %MON dynstat_vvel_sd              =   9.0186048097519E-07
(PID.TID 0000.0001) %MON dynstat_vvel_del2            =   4.6789091649091E-09
(PID.TID 0000.0001) %MON dynstat_wvel_max             =   5.0837490958600E-12
(PID.TID 0000.0001) %MON dynstat_wvel_min             =  -5.0445898252605E-12
(PID.TID 0000.0001) %MON dynstat_wvel_mean            =   4.2988598246024E-25
(PID.TID 0000.0001) %MON dynstat_wvel_sd              =   8.2620078993824E-13
(PID.TID 0000.0001) %MON dynstat_wvel_del2            =   4.6399913962270E-15
(PID.TID 0000.0001) %MON dynstat_theta_max            =   2.0000000000000E+01
(PID.TID 0000.0001) %MON dynstat_theta_min            =   2.0000000000000E+01
(PID.TID 0000.0001) %MON dynstat_theta_mean           =   2.0000000000000E+01
(PID.TID 0000.0001) %MON dynstat_theta_sd             =   0.0000000000000E+00
(PID.TID 0000.0001) %MON dynstat_theta_del2           =   0.0000000000000E+00
(PID.TID 0000.0001) %MON dynstat_salt_max             =   3.0000000000000E+01
(PID.TID 0000.0001) %MON dynstat_salt_min             =   3.0000000000000E+01
(PID.TID 0000.0001) %MON dynstat_salt_mean            =   3.0000000000000E+01
(PID.TID 0000.0001) %MON dynstat_salt_sd              =   0.0000000000000E+00
(PID.TID 0000.0001) %MON dynstat_salt_del2            =   0.0000000000000E+00
(PID.TID 0000.0001) %MON trAdv_CFL_u_max              =   6.4003126545315E-06
(PID.TID 0000.0001) %MON trAdv_CFL_v_max              =   6.9425002015265E-06
(PID.TID 0000.0001) %MON trAdv_CFL_w_max              =   6.1337415217622E-12
(PID.TID 0000.0001) %MON advcfl_uvel_max              =   5.6008747390787E-06
(PID.TID 0000.0001) %MON advcfl_vvel_max              =   6.0755405306500E-06
(PID.TID 0000.0001) %MON advcfl_wvel_max              =   1.0980898047058E-11
(PID.TID 0000.0001) %MON advcfl_W_hf_max              =   0.0000000000000E+00
(PID.TID 0000.0001) %MON pe_b_mean                    =   3.7301400062307E-18
(PID.TID 0000.0001) %MON ke_max                       =   1.9648681587043E-11
(PID.TID 0000.0001) %MON ke_mean                      =   7.8696175245807E-13
(PID.TID 0000.0001) %MON ke_vol                       =   7.5645000000000E+15
(PID.TID 0000.0001) %MON vort_r_min                   =  -1.7559931995020E-09
(PID.TID 0000.0001) %MON vort_r_max                   =   1.6505271164003E-09
(PID.TID 0000.0001) %MON vort_a_mean                  =   8.2300000000000E-05
(PID.TID 0000.0001) %MON vort_a_sd                    =   7.1297555168503E-06
(PID.TID 0000.0001) %MON vort_p_mean                  =   8.3303658536586E-05
(PID.TID 0000.0001) %MON vort_p_sd                    =   1.7411471852633E-05
(PID.TID 0000.0001) %MON surfExpan_theta_mean         =   8.5983575960849E-24
(PID.TID 0000.0001) %MON surfExpan_salt_mean          =   1.2900581892159E-23
(PID.TID 0000.0001) // =======================================================
(PID.TID 0000.0001) // End MONITOR dynamic field statistics
(PID.TID 0000.0001) // =======================================================
 cg2d: Sum(rhs),rhsMax =   1.10994551571902E-05  2.58733990067220E-06
 cg2d: Sum(rhs),rhsMax =   9.50471495104327E-06  2.31095486158594E-06
 cg2d: Sum(rhs),rhsMax =   7.17612256776606E-06  2.07127955840381E-06
 cg2d: Sum(rhs),rhsMax =   4.12840811549881E-06  1.85979082119958E-06
 cg2d: Sum(rhs),rhsMax =   3.40792263346656E-07  1.67313161544048E-06
 cg2d: Sum(rhs),rhsMax =   3.47106386001939E-07  1.50834184716911E-06
 cg2d: Sum(rhs),rhsMax =   3.53489588079958E-07  1.36273636509036E-06
 cg2d: Sum(rhs),rhsMax =   3.56668770191970E-07  1.23395008544130E-06
 cg2d: Sum(rhs),rhsMax =   3.61826837470824E-07  1.11989229601942E-06
 cg2d: Sum(rhs),rhsMax =   3.71731836437683E-07  1.01873100701146E-06
 cg2d: Sum(rhs),rhsMax =   3.83341531177972E-07  9.28863630511623E-07
 cg2d: Sum(rhs),rhsMax =   3.96688132363321E-07  8.48891379387493E-07
 cg2d: Sum(rhs),rhsMax =   4.11724184801177E-07  7.77595679779018E-07
 cg2d: Sum(rhs),rhsMax =   4.25250665438137E-07  7.13915023910991E-07
 cg2d: Sum(rhs),rhsMax =   4.36931081176928E-07  6.61919867622573E-07
 cg2d: Sum(rhs),rhsMax =   4.42377938218719E-07  6.20841616169260E-07
(PID.TID 0000.0001)      cg2d_init_res =   3.43405363677671E+00
(PID.TID 0000.0001)      cg2d_iters(min,last) =      -1     515
(PID.TID 0000.0001)      cg2d_last_res =   9.60711207454889E-08
(PID.TID 0000.0001) // =======================================================
(PID.TID 0000.0001) // Begin MONITOR dynamic field statistics
(PID.TID 0000.0001) // =======================================================
(PID.TID 0000.0001) %MON time_tsnumber                =                    32
(PID.TID 0000.0001) %MON time_secondsf                =   1.7280000000000E+05
(PID.TID 0000.0001) %MON dynstat_eta_max              =   1.3471849390029E-07
(PID.TID 0000.0001) %MON dynstat_eta_min              =  -1.7855031478320E-07
(PID.TID 0000.0001) %MON dynstat_eta_mean             =  -2.5231558000901E-14
(PID.TID 0000.0001) %MON dynstat_eta_sd               =   3.4053632633552E-08
(PID.TID 0000.0001) %MON dynstat_eta_del2             =   4.4492572899315E-11
(PID.TID 0000.0001) %MON dynstat_uvel_max             =   1.3636006837310E-06
(PID.TID 0000.0001) %MON dynstat_uvel_min             =  -1.2601675229530E-06
(PID.TID 0000.0001) %MON dynstat_uvel_mean            =   1.0025977967747E-12
(PID.TID 0000.0001) %MON dynstat_uvel_sd              =   2.9132914276292E-07
(PID.TID 0000.0001) %MON dynstat_uvel_del2            =   6.9666403511688E-10
(PID.TID 0000.0001) %MON dynstat_vvel_max             =   1.3658178509883E-06
(PID.TID 0000.0001) %MON dynstat_vvel_min             =  -1.4610442886850E-06
(PID.TID 0000.0001) %MON dynstat_vvel_mean            =   2.6082130855789E-12
(PID.TID 0000.0001) %MON dynstat_vvel_sd              =   3.0364513715630E-07
(PID.TID 0000.0001) %MON dynstat_vvel_del2            =   7.1409837243315E-10
(PID.TID 0000.0001) %MON dynstat_wvel_max             =   1.2595160407258E-12
(PID.TID 0000.0001) %MON dynstat_wvel_min             =  -1.0403914958879E-12
(PID.TID 0000.0001) %MON dynstat_wvel_mean            =  -5.0228789252004E-26
(PID.TID 0000.0001) %MON dynstat_wvel_sd              =   2.1687065479843E-13
(PID.TID 0000.0001) %MON dynstat_wvel_del2            =   5.9804592857836E-16
(PID.TID 0000.0001) %MON dynstat_theta_max            =   2.0000000000000E+01
(PID.TID 0000.0001) %MON dynstat_theta_min            =   2.0000000000000E+01
(PID.TID 0000.0001) %MON dynstat_theta_mean           =   2.0000000000000E+01
(PID.TID 0000.0001) %MON dynstat_theta_sd             =   0.0000000000000E+00
(PID.TID 0000.0001) %MON dynstat_theta_del2           =   0.0000000000000E+00
(PID.TID 0000.0001) %MON dynstat_salt_max             =   3.0000000000000E+01
(PID.TID 0000.0001) %MON dynstat_salt_min             =   3.0000000000000E+01
(PID.TID 0000.0001) %MON dynstat_salt_mean            =   3.0000000000000E+01
(PID.TID 0000.0001) %MON dynstat_salt_sd              =   0.0000000000000E+00
(PID.TID 0000.0001) %MON dynstat_salt_del2            =   0.0000000000000E+00
(PID.TID 0000.0001) %MON trAdv_CFL_u_max              =   1.5573384080606E-06
(PID.TID 0000.0001) %MON trAdv_CFL_v_max              =   1.6669535738052E-06
(PID.TID 0000.0001) %MON trAdv_CFL_w_max              =   1.4398440076704E-12
(PID.TID 0000.0001) %MON advcfl_uvel_max              =   1.4726887384295E-06
(PID.TID 0000.0001) %MON advcfl_vvel_max              =   1.5779278317798E-06
(PID.TID 0000.0001) %MON advcfl_wvel_max              =   2.7205546479678E-12
(PID.TID 0000.0001) %MON advcfl_W_hf_max              =   0.0000000000000E+00
(PID.TID 0000.0001) %MON pe_b_mean                    =   1.1376165475263E-18
(PID.TID 0000.0001) %MON ke_max                       =   1.1719112702364E-12
(PID.TID 0000.0001) %MON ke_mean                      =   8.8176614824423E-14
(PID.TID 0000.0001) %MON ke_vol                       =   7.5645000000000E+15
(PID.TID 0000.0001) %MON vort_r_min                   =  -3.4191948368334E-10
(PID.TID 0000.0001) %MON vort_r_max                   =   3.1914976601057E-10
(PID.TID 0000.0001) %MON vort_a_mean                  =   8.2300000000000E-05
(PID.TID 0000.0001) %MON vort_a_sd                    =   7.1297555118365E-06
(PID.TID 0000.0001) %MON vort_p_mean                  =   8.3303658536585E-05
(PID.TID 0000.0001) %MON vort_p_sd                    =   1.7411470813874E-05
(PID.TID 0000.0001) %MON surfExpan_theta_mean         =  -1.0025367883833E-24
(PID.TID 0000.0001) %MON surfExpan_salt_mean          =  -1.5044773176914E-24
(PID.TID 0000.0001) // =======================================================
(PID.TID 0000.0001) // End MONITOR dynamic field statistics
(PID.TID 0000.0001) // =======================================================
 cg2d: Sum(rhs),rhsMax =   4.49384396375430E-07  5.82611206586596E-07
 cg2d: Sum(rhs),rhsMax =   4.54519874633352E-07  5.47028257816095E-07
 cg2d: Sum(rhs),rhsMax =   4.60896612375361E-07  5.13903860622193E-07
 cg2d: Sum(rhs),rhsMax =   4.64905754504752E-07  4.83060557756374E-07
 cg2d: Sum(rhs),rhsMax =   4.65918101856533E-07  4.54332495448142E-07
 cg2d: Sum(rhs),rhsMax =   4.67331954127903E-07  4.27565063572647E-07
 cg2d: Sum(rhs),rhsMax =  -3.35299343883627E-06  4.02614545441868E-07
 cg2d: Sum(rhs),rhsMax =  -7.11165736382025E-06  3.79347579944001E-07
 cg2d: Sum(rhs),rhsMax =  -1.07488514838952E-05  3.58605461174531E-07
 cg2d: Sum(rhs),rhsMax =  -1.42758517598165E-05  3.43081197081923E-07
 cg2d: Sum(rhs),rhsMax =  -1.74080341953237E-05  3.28275540065542E-07
 cg2d: Sum(rhs),rhsMax =  -2.03008290754966E-05  3.14160404981994E-07
 cg2d: Sum(rhs),rhsMax =  -2.29337106507563E-05  3.00707428731088E-07
 cg2d: Sum(rhs),rhsMax =  -2.52884319076122E-05  2.87888288415301E-07
 cg2d: Sum(rhs),rhsMax =  -2.73450305518508E-05  2.75674954746698E-07
 cg2d: Sum(rhs),rhsMax =  -2.90831693426814E-05  2.64039890064832E-07
(PID.TID 0000.0001)      cg2d_init_res =   2.38100023871141E+00
(PID.TID 0000.0001)      cg2d_iters(min,last) =      -1     430
(PID.TID 0000.0001)      cg2d_last_res =   9.45471721910103E-08
(PID.TID 0000.0001) // =======================================================
(PID.TID 0000.0001) // Begin MONITOR dynamic field statistics
(PID.TID 0000.0001) // =======================================================
(PID.TID 0000.0001) %MON time_tsnumber                =                    48
(PID.TID 0000.0001) %MON time_secondsf                =   2.5920000000000E+05
(PID.TID 0000.0001) %MON dynstat_eta_max              =   1.0304111720127E-07
(PID.TID 0000.0001) %MON dynstat_eta_min              =  -1.2370790202663E-07
(PID.TID 0000.0001) %MON dynstat_eta_mean             =   7.4307001113894E-13
(PID.TID 0000.0001) %MON dynstat_eta_sd               =   2.4468574721595E-08
(PID.TID 0000.0001) %MON dynstat_eta_del2             =   1.9946026404125E-11
(PID.TID 0000.0001) %MON dynstat_uvel_max             =   7.1403368477720E-07
(PID.TID 0000.0001) %MON dynstat_uvel_min             =  -6.7415640639089E-07
(PID.TID 0000.0001) %MON dynstat_uvel_mean            =   5.8543131275998E-13
(PID.TID 0000.0001) %MON dynstat_uvel_sd              =   1.5653981789692E-07
(PID.TID 0000.0001) %MON dynstat_uvel_del2            =   2.4620657948079E-10
(PID.TID 0000.0001) %MON dynstat_vvel_max             =   6.6215943597645E-07
(PID.TID 0000.0001) %MON dynstat_vvel_min             =  -6.8426638867111E-07
(PID.TID 0000.0001) %MON dynstat_vvel_mean            =   1.4837667648778E-12
(PID.TID 0000.0001) %MON dynstat_vvel_sd              =   1.6609890247584E-07
(PID.TID 0000.0001) %MON dynstat_vvel_del2            =   2.5172321555059E-10
(PID.TID 0000.0001) %MON dynstat_wvel_max             =   5.7576294320683E-13
(PID.TID 0000.0001) %MON dynstat_wvel_min             =  -4.7652412605848E-13
(PID.TID 0000.0001) %MON dynstat_wvel_mean            =  -3.6892635339554E-26
(PID.TID 0000.0001) %MON dynstat_wvel_sd              =   1.0012920855975E-13
(PID.TID 0000.0001) %MON dynstat_wvel_del2            =   1.7598871123430E-16
(PID.TID 0000.0001) %MON dynstat_theta_max            =   2.0000000000000E+01
(PID.TID 0000.0001) %MON dynstat_theta_min            =   2.0000000000000E+01
(PID.TID 0000.0001) %MON dynstat_theta_mean           =   2.0000000000000E+01
(PID.TID 0000.0001) %MON dynstat_theta_sd             =   0.0000000000000E+00
(PID.TID 0000.0001) %MON dynstat_theta_del2           =   0.0000000000000E+00
(PID.TID 0000.0001) %MON dynstat_salt_max             =   3.0000000000000E+01
(PID.TID 0000.0001) %MON dynstat_salt_min             =   3.0000000000000E+01
(PID.TID 0000.0001) %MON dynstat_salt_mean            =   3.0000000000000E+01
(PID.TID 0000.0001) %MON dynstat_salt_sd              =   0.0000000000000E+00
(PID.TID 0000.0001) %MON dynstat_salt_del2            =   0.0000000000000E+00
(PID.TID 0000.0001) %MON trAdv_CFL_u_max              =   7.9926169662046E-07
(PID.TID 0000.0001) %MON trAdv_CFL_v_max              =   7.7072925819928E-07
(PID.TID 0000.0001) %MON trAdv_CFL_w_max              =   6.4588677033299E-13
(PID.TID 0000.0001) %MON advcfl_uvel_max              =   7.7115637955938E-07
(PID.TID 0000.0001) %MON advcfl_vvel_max              =   7.3900769976480E-07
(PID.TID 0000.0001) %MON advcfl_wvel_max              =   1.2436479573267E-12
(PID.TID 0000.0001) %MON advcfl_W_hf_max              =   0.0000000000000E+00
(PID.TID 0000.0001) %MON pe_b_mean                    =   5.8733563761872E-19
(PID.TID 0000.0001) %MON ke_max                       =   2.6805529266332E-13
(PID.TID 0000.0001) %MON ke_mean                      =   2.5940898777213E-14
(PID.TID 0000.0001) %MON ke_vol                       =   7.5645000000000E+15
(PID.TID 0000.0001) %MON vort_r_min                   =  -1.2191425781167E-10
(PID.TID 0000.0001) %MON vort_r_max                   =   1.2883043926541E-10
(PID.TID 0000.0001) %MON vort_a_mean                  =   8.2300000000000E-05
(PID.TID 0000.0001) %MON vort_a_sd                    =   7.1297555116096E-06
(PID.TID 0000.0001) %MON vort_p_mean                  =   8.3303658536586E-05
(PID.TID 0000.0001) %MON vort_p_sd                    =   1.7411470343225E-05
(PID.TID 0000.0001) %MON surfExpan_theta_mean         =  -7.3950887507551E-25
(PID.TID 0000.0001) %MON surfExpan_salt_mean          =  -1.1091417606699E-24
(PID.TID 0000.0001) // =======================================================
(PID.TID 0000.0001) // End MONITOR dynamic field statistics
(PID.TID 0000.0001) // =======================================================
 cg2d: Sum(rhs),rhsMax =  -3.04815538516578E-05  2.52956201015006E-07
 cg2d: Sum(rhs),rhsMax =  -3.15181513352719E-05  2.42397753581465E-07
 cg2d: Sum(rhs),rhsMax =  -3.21698440609378E-05  2.32339256830512E-07
 cg2d: Sum(rhs),rhsMax =  -3.24129217070743E-05  2.22756321636010E-07
 cg2d: Sum(rhs),rhsMax =  -3.22226924838950E-05  2.13625498164846E-07
 cg2d: Sum(rhs),rhsMax =  -3.15735594073815E-05  2.04924297613047E-07
 cg2d: Sum(rhs),rhsMax =  -3.04381460412076E-05  1.96631198749563E-07
 cg2d: Sum(rhs),rhsMax =  -2.87896326947451E-05  1.88725645337366E-07
 cg2d: Sum(rhs),rhsMax =  -2.66023465888728E-05  1.81188033944363E-07
 cg2d: Sum(rhs),rhsMax =  -2.38508061074019E-05  1.73999695401355E-07
 cg2d: Sum(rhs),rhsMax =  -2.48041145837694E-05  1.67142872033609E-07
 cg2d: Sum(rhs),rhsMax =  -2.57913210321391E-05  1.60600689356753E-07
 cg2d: Sum(rhs),rhsMax =  -2.68129490035886E-05  1.54357126701200E-07
 cg2d: Sum(rhs),rhsMax =  -2.78696046262829E-05  1.48396985010360E-07
 cg2d: Sum(rhs),rhsMax =  -2.89619598138925E-05  1.42705853857684E-07
 cg2d: Sum(rhs),rhsMax =  -3.00931846260698E-05  1.37270077713414E-07
(PID.TID 0000.0001)      cg2d_init_res =   1.92937463456064E+00
(PID.TID 0000.0001)      cg2d_iters(min,last) =      -1     523
(PID.TID 0000.0001)      cg2d_last_res =   9.43052442264773E-08
(PID.TID 0000.0001) // =======================================================
(PID.TID 0000.0001) // Begin MONITOR dynamic field statistics
(PID.TID 0000.0001) // =======================================================
(PID.TID 0000.0001) %MON time_tsnumber                =                    64
(PID.TID 0000.0001) %MON time_secondsf                =   3.4560000000000E+05
(PID.TID 0000.0001) %MON dynstat_eta_max              =   8.3801668325449E-08
(PID.TID 0000.0001) %MON dynstat_eta_min              =  -9.8348448107602E-08
(PID.TID 0000.0001) %MON dynstat_eta_mean             =   3.9790962831447E-13
(PID.TID 0000.0001) %MON dynstat_eta_sd               =   1.9703098205511E-08
(PID.TID 0000.0001) %MON dynstat_eta_del2             =   1.1318321036516E-11
(PID.TID 0000.0001) %MON dynstat_uvel_max             =   4.2011799392338E-07
(PID.TID 0000.0001) %MON dynstat_uvel_min             =  -4.5392749438395E-07
(PID.TID 0000.0001) %MON dynstat_uvel_mean            =   3.3376944988424E-13
(PID.TID 0000.0001) %MON dynstat_uvel_sd              =   1.0160153561949E-07
(PID.TID 0000.0001) %MON dynstat_uvel_del2            =   1.1829643202791E-10
(PID.TID 0000.0001) %MON dynstat_vvel_max             =   4.3668195804678E-07
(PID.TID 0000.0001) %MON dynstat_vvel_min             =  -4.0687754422339E-07
(PID.TID 0000.0001) %MON dynstat_vvel_mean            =   9.7507256205369E-13
(PID.TID 0000.0001) %MON dynstat_vvel_sd              =   1.0918767407041E-07
(PID.TID 0000.0001) %MON dynstat_vvel_del2            =   1.2231715513214E-10
(PID.TID 0000.0001) %MON dynstat_wvel_max             =   3.2118362165434E-13
(PID.TID 0000.0001) %MON dynstat_wvel_min             =  -2.5275838071437E-13
(PID.TID 0000.0001) %MON dynstat_wvel_mean            =  -2.6609508289571E-26
(PID.TID 0000.0001) %MON dynstat_wvel_sd              =   5.8738871113243E-14
(PID.TID 0000.0001) %MON dynstat_wvel_del2            =   7.4006084430182E-17
(PID.TID 0000.0001) %MON dynstat_theta_max            =   2.0000000000000E+01
(PID.TID 0000.0001) %MON dynstat_theta_min            =   2.0000000000000E+01
(PID.TID 0000.0001) %MON dynstat_theta_mean           =   2.0000000000000E+01
(PID.TID 0000.0001) %MON dynstat_theta_sd             =   0.0000000000000E+00
(PID.TID 0000.0001) %MON dynstat_theta_del2           =   0.0000000000000E+00
(PID.TID 0000.0001) %MON dynstat_salt_max             =   3.0000000000000E+01
(PID.TID 0000.0001) %MON dynstat_salt_min             =   3.0000000000000E+01
(PID.TID 0000.0001) %MON dynstat_salt_mean            =   3.0000000000000E+01
(PID.TID 0000.0001) %MON dynstat_salt_sd              =   0.0000000000000E+00
(PID.TID 0000.0001) %MON dynstat_salt_del2            =   0.0000000000000E+00
(PID.TID 0000.0001) %MON trAdv_CFL_u_max              =   5.0046785272201E-07
(PID.TID 0000.0001) %MON trAdv_CFL_v_max              =   4.8199523290533E-07
(PID.TID 0000.0001) %MON trAdv_CFL_w_max              =   3.5919132802178E-13
(PID.TID 0000.0001) %MON advcfl_uvel_max              =   4.9024169393467E-07
(PID.TID 0000.0001) %MON advcfl_vvel_max              =   4.7161651469052E-07
(PID.TID 0000.0001) %MON advcfl_wvel_max              =   6.9375662277338E-13
(PID.TID 0000.0001) %MON advcfl_W_hf_max              =   0.0000000000000E+00
(PID.TID 0000.0001) %MON pe_b_mean                    =   3.8083604955231E-19
(PID.TID 0000.0001) %MON ke_max                       =   1.0528013578982E-13
(PID.TID 0000.0001) %MON ke_mean                      =   1.1077197055896E-14
(PID.TID 0000.0001) %MON ke_vol                       =   7.5645000000000E+15
(PID.TID 0000.0001) %MON vort_r_min                   =  -5.7225039537125E-11
(PID.TID 0000.0001) %MON vort_r_max                   =   6.3572403842930E-11
(PID.TID 0000.0001) %MON vort_a_mean                  =   8.2300000000000E-05
(PID.TID 0000.0001) %MON vort_a_sd                    =   7.1297555115743E-06
(PID.TID 0000.0001) %MON vort_p_mean                  =   8.3303658536586E-05
(PID.TID 0000.0001) %MON vort_p_sd                    =   1.7411470266931E-05
(PID.TID 0000.0001) %MON surfExpan_theta_mean         =  -5.3143736512126E-25
(PID.TID 0000.0001) %MON surfExpan_salt_mean          =  -7.9729364175682E-25
(PID.TID 0000.0001) // =======================================================
(PID.TID 0000.0001) // End MONITOR dynamic field statistics
(PID.TID 0000.0001) // =======================================================
 cg2d: Sum(rhs),rhsMax =  -3.12615755953607E-05  1.32076722173392E-07
 cg2d: Sum(rhs),rhsMax =  -3.24679528154806E-05  1.27113540178382E-07
 cg2d: Sum(rhs),rhsMax =  -3.37131706778931E-05  1.22368938993778E-07
 cg2d: Sum(rhs),rhsMax =  -3.49981143301370E-05  1.17831947720539E-07
 cg2d: Sum(rhs),rhsMax =  -3.63237007654192E-05  1.13492185748566E-07
 cg2d: Sum(rhs),rhsMax =  -3.76925183415561E-05  1.09339832222869E-07
 cg2d: Sum(rhs),rhsMax =  -3.91039122247319E-05  1.05365596498380E-07
 cg2d: Sum(rhs),rhsMax =  -4.05588901077145E-05  1.01560689985028E-07
 cg2d: Sum(rhs),rhsMax =  -4.20584897886100E-05  9.79167988849154E-08
 cg2d: Sum(rhs),rhsMax =  -4.36037767600483E-05  9.44260583323202E-08
 cg2d: Sum(rhs),rhsMax =  -4.51970501056422E-05  9.10810276916698E-08
 cg2d: Sum(rhs),rhsMax =  -4.65090559702685E-05  8.84966478470263E-08
 cg2d: Sum(rhs),rhsMax =  -4.74081248223682E-05  8.68044163099439E-08
 cg2d: Sum(rhs),rhsMax =  -4.83185238661591E-05  8.51559107704505E-08
 cg2d: Sum(rhs),rhsMax =  -4.92401760962616E-05  8.35499190320311E-08
 cg2d: Sum(rhs),rhsMax =  -5.01730045824513E-05  8.19852552324319E-08
(PID.TID 0000.0001)      cg2d_init_res =   1.65527376100124E+00
(PID.TID 0000.0001)      cg2d_iters(min,last) =      -1     525
(PID.TID 0000.0001)      cg2d_last_res =   9.37140077818349E-08
(PID.TID 0000.0001) // =======================================================
(PID.TID 0000.0001) // Begin MONITOR dynamic field statistics
(PID.TID 0000.0001) // =======================================================
(PID.TID 0000.0001) %MON time_tsnumber                =                    80
(PID.TID 0000.0001) %MON time_secondsf                =   4.3200000000000E+05
(PID.TID 0000.0001) %MON dynstat_eta_max              =   7.0138049713323E-08
(PID.TID 0000.0001) %MON dynstat_eta_min              =  -8.3352967283052E-08
(PID.TID 0000.0001) %MON dynstat_eta_mean             =   3.9636584579657E-13
(PID.TID 0000.0001) %MON dynstat_eta_sd               =   1.6950904914943E-08
(PID.TID 0000.0001) %MON dynstat_eta_del2             =   7.3178803474546E-12
(PID.TID 0000.0001) %MON dynstat_uvel_max             =   2.7731385489858E-07
(PID.TID 0000.0001) %MON dynstat_uvel_min             =  -3.4235005885903E-07
(PID.TID 0000.0001) %MON dynstat_uvel_mean            =   1.2567847208995E-13
(PID.TID 0000.0001) %MON dynstat_uvel_sd              =   7.3232169049423E-08
(PID.TID 0000.0001) %MON dynstat_uvel_del2            =   6.7088714354349E-11
(PID.TID 0000.0001) %MON dynstat_vvel_max             =   3.1536657507401E-07
(PID.TID 0000.0001) %MON dynstat_vvel_min             =  -2.9757626427376E-07
(PID.TID 0000.0001) %MON dynstat_vvel_mean            =   7.0499379385673E-13
(PID.TID 0000.0001) %MON dynstat_vvel_sd              =   7.8924613348883E-08
(PID.TID 0000.0001) %MON dynstat_vvel_del2            =   7.0629312156899E-11
(PID.TID 0000.0001) %MON dynstat_wvel_max             =   1.9279554454910E-13
(PID.TID 0000.0001) %MON dynstat_wvel_min             =  -1.6878363858552E-13
(PID.TID 0000.0001) %MON dynstat_wvel_mean            =   7.7524006705763E-27
(PID.TID 0000.0001) %MON dynstat_wvel_sd              =   3.9635347564557E-14
(PID.TID 0000.0001) %MON dynstat_wvel_del2            =   3.7861260143731E-17
(PID.TID 0000.0001) %MON dynstat_theta_max            =   2.0000000000000E+01
(PID.TID 0000.0001) %MON dynstat_theta_min            =   2.0000000000000E+01
(PID.TID 0000.0001) %MON dynstat_theta_mean           =   2.0000000000000E+01
(PID.TID 0000.0001) %MON dynstat_theta_sd             =   0.0000000000000E+00
(PID.TID 0000.0001) %MON dynstat_theta_del2           =   0.0000000000000E+00
(PID.TID 0000.0001) %MON dynstat_salt_max             =   3.0000000000000E+01
(PID.TID 0000.0001) %MON dynstat_salt_min             =   3.0000000000000E+01
(PID.TID 0000.0001) %MON dynstat_salt_mean            =   3.0000000000000E+01
(PID.TID 0000.0001) %MON dynstat_salt_sd              =   0.0000000000000E+00
(PID.TID 0000.0001) %MON dynstat_salt_del2            =   0.0000000000000E+00
(PID.TID 0000.0001) %MON trAdv_CFL_u_max              =   3.7532140270937E-07
(PID.TID 0000.0001) %MON trAdv_CFL_v_max              =   3.4718766447074E-07
(PID.TID 0000.0001) %MON trAdv_CFL_w_max              =   2.1466806877850E-13
(PID.TID 0000.0001) %MON advcfl_uvel_max              =   3.6973806356776E-07
(PID.TID 0000.0001) %MON advcfl_vvel_max              =   3.4059590107993E-07
(PID.TID 0000.0001) %MON advcfl_wvel_max              =   4.1643837622605E-13
(PID.TID 0000.0001) %MON advcfl_W_hf_max              =   0.0000000000000E+00
(PID.TID 0000.0001) %MON pe_b_mean                    =   2.8187384721830E-19
(PID.TID 0000.0001) %MON ke_max                       =   5.8480048642201E-14
(PID.TID 0000.0001) %MON ke_mean                      =   5.7724615208015E-15
(PID.TID 0000.0001) %MON ke_vol                       =   7.5645000000000E+15
(PID.TID 0000.0001) %MON vort_r_min                   =  -3.8426457748665E-11
(PID.TID 0000.0001) %MON vort_r_max                   =   3.9418888346262E-11
(PID.TID 0000.0001) %MON vort_a_mean                  =   8.2299999999999E-05
(PID.TID 0000.0001) %MON vort_a_sd                    =   7.1297555115763E-06
(PID.TID 0000.0001) %MON vort_p_mean                  =   8.3303658536585E-05
(PID.TID 0000.0001) %MON vort_p_sd                    =   1.7411470271094E-05
(PID.TID 0000.0001) %MON surfExpan_theta_mean         =   1.5528807923525E-25
(PID.TID 0000.0001) %MON surfExpan_salt_mean          =   2.3295275803760E-25
(PID.TID 0000.0001) // =======================================================
(PID.TID 0000.0001) // End MONITOR dynamic field statistics
(PID.TID 0000.0001) // =======================================================
 cg2d: Sum(rhs),rhsMax =  -5.11169333545633E-05  8.04607601136235E-08
 cg2d: Sum(rhs),rhsMax =  -5.20718875392052E-05  7.89753011925887E-08
 cg2d: Sum(rhs),rhsMax =  -5.30377896788246E-05  7.75277728478792E-08
 cg2d: Sum(rhs),rhsMax =  -5.40145647524547E-05  7.61170963276279E-08
 cg2d: Sum(rhs),rhsMax =  -5.50021382109680E-05  7.47422196866180E-08
 cg2d: Sum(rhs),rhsMax =  -5.60004360981234E-05  7.34021176589436E-08
 cg2d: Sum(rhs),rhsMax =  -5.70093826463185E-05  7.20957914727788E-08
 cg2d: Sum(rhs),rhsMax =  -5.80289065718765E-05  7.08222686132991E-08
 cg2d: Sum(rhs),rhsMax =  -5.90589339323892E-05  6.95806025395014E-08
 cg2d: Sum(rhs),rhsMax =  -6.00993934800828E-05  6.83698723602819E-08
 cg2d: Sum(rhs),rhsMax =  -6.11502135852912E-05  6.71891824747834E-08
 cg2d: Sum(rhs),rhsMax =  -6.22113238313649E-05  6.60376621816718E-08
 cg2d: Sum(rhs),rhsMax =  -6.32826562352749E-05  6.49144652616444E-08
 cg2d: Sum(rhs),rhsMax =  -6.43562697305701E-05  6.38265751240249E-08
 cg2d: Sum(rhs),rhsMax =  -6.54300568940017E-05  6.27743803104357E-08
 cg2d: Sum(rhs),rhsMax =  -6.65137913938541E-05  6.17470776413741E-08
(PID.TID 0000.0001)      cg2d_init_res =   1.27664595790381E+00
(PID.TID 0000.0001)      cg2d_iters(min,last) =      -1     525
(PID.TID 0000.0001)      cg2d_last_res =   9.62145271787043E-08
(PID.TID 0000.0001) // =======================================================
(PID.TID 0000.0001) // Begin MONITOR dynamic field statistics
(PID.TID 0000.0001) // =======================================================
(PID.TID 0000.0001) %MON time_tsnumber                =                    96
(PID.TID 0000.0001) %MON time_secondsf                =   5.1840000000000E+05
(PID.TID 0000.0001) %MON dynstat_eta_max              =   5.9241005424353E-08
(PID.TID 0000.0001) %MON dynstat_eta_min              =  -7.4080895323521E-08
(PID.TID 0000.0001) %MON dynstat_eta_mean             =   3.9577174621604E-13
(PID.TID 0000.0001) %MON dynstat_eta_sd               =   1.5232418439644E-08
(PID.TID 0000.0001) %MON dynstat_eta_del2             =   5.1352986380773E-12
(PID.TID 0000.0001) %MON dynstat_uvel_max             =   2.0721751337380E-07
(PID.TID 0000.0001) %MON dynstat_uvel_min             =  -2.7421155298410E-07
(PID.TID 0000.0001) %MON dynstat_uvel_mean            =  -5.9418770971134E-14
(PID.TID 0000.0001) %MON dynstat_uvel_sd              =   5.6411014727857E-08
(PID.TID 0000.0001) %MON dynstat_uvel_del2            =   4.2320154057811E-11
(PID.TID 0000.0001) %MON dynstat_vvel_max             =   2.3625908951812E-07
(PID.TID 0000.0001) %MON dynstat_vvel_min             =  -2.4362126964391E-07
(PID.TID 0000.0001) %MON dynstat_vvel_mean            =   5.4439138504561E-13
(PID.TID 0000.0001) %MON dynstat_vvel_sd              =   6.0427712945608E-08
(PID.TID 0000.0001) %MON dynstat_vvel_del2            =   4.5363625936072E-11
(PID.TID 0000.0001) %MON dynstat_wvel_max             =   1.2300026049239E-13
(PID.TID 0000.0001) %MON dynstat_wvel_min             =  -1.2587379508489E-13
(PID.TID 0000.0001) %MON dynstat_wvel_mean            =  -1.2368494823682E-27
(PID.TID 0000.0001) %MON dynstat_wvel_sd              =   2.9499173907086E-14
(PID.TID 0000.0001) %MON dynstat_wvel_del2            =   2.1970810435209E-17
(PID.TID 0000.0001) %MON dynstat_theta_max            =   2.0000000000000E+01
(PID.TID 0000.0001) %MON dynstat_theta_min            =   2.0000000000000E+01
(PID.TID 0000.0001) %MON dynstat_theta_mean           =   2.0000000000000E+01
(PID.TID 0000.0001) %MON dynstat_theta_sd             =   0.0000000000000E+00
(PID.TID 0000.0001) %MON dynstat_theta_del2           =   0.0000000000000E+00
(PID.TID 0000.0001) %MON dynstat_salt_max             =   3.0000000000000E+01
(PID.TID 0000.0001) %MON dynstat_salt_min             =   3.0000000000000E+01
(PID.TID 0000.0001) %MON dynstat_salt_mean            =   3.0000000000000E+01
(PID.TID 0000.0001) %MON dynstat_salt_sd              =   0.0000000000000E+00
(PID.TID 0000.0001) %MON dynstat_salt_del2            =   0.0000000000000E+00
(PID.TID 0000.0001) %MON trAdv_CFL_u_max              =   2.9999423527453E-07
(PID.TID 0000.0001) %MON trAdv_CFL_v_max              =   2.6541453560811E-07
(PID.TID 0000.0001) %MON trAdv_CFL_w_max              =   1.3584847949675E-13
(PID.TID 0000.0001) %MON advcfl_uvel_max              =   2.9614847722283E-07
(PID.TID 0000.0001) %MON advcfl_vvel_max              =   2.6311097121543E-07
(PID.TID 0000.0001) %MON advcfl_wvel_max              =   2.7188739738335E-13
(PID.TID 0000.0001) %MON advcfl_W_hf_max              =   0.0000000000000E+00
(PID.TID 0000.0001) %MON pe_b_mean                    =   2.2761806681519E-19
(PID.TID 0000.0001) %MON ke_max                       =   3.7550198066939E-14
(PID.TID 0000.0001) %MON ke_mean                      =   3.4029658807255E-15
(PID.TID 0000.0001) %MON ke_vol                       =   7.5645000000000E+15
(PID.TID 0000.0001) %MON vort_r_min                   =  -2.7471543751303E-11
(PID.TID 0000.0001) %MON vort_r_max                   =   2.7402442943467E-11
(PID.TID 0000.0001) %MON vort_a_mean                  =   8.2300000000000E-05
(PID.TID 0000.0001) %MON vort_a_sd                    =   7.1297555115659E-06
(PID.TID 0000.0001) %MON vort_p_mean                  =   8.3303658536586E-05
(PID.TID 0000.0001) %MON vort_p_sd                    =   1.7411470282437E-05
(PID.TID 0000.0001) %MON surfExpan_theta_mean         =  -2.4550453835740E-26
(PID.TID 0000.0001) %MON surfExpan_salt_mean          =  -3.7158201091894E-26
(PID.TID 0000.0001) // =======================================================
(PID.TID 0000.0001) // End MONITOR dynamic field statistics
(PID.TID 0000.0001) // =======================================================
 cg2d: Sum(rhs),rhsMax =  -6.76073929269238E-05  6.07439872743251E-08
 cg2d: Sum(rhs),rhsMax =  -6.87107843872683E-05  5.97644453788527E-08
 cg2d: Sum(rhs),rhsMax =  -6.98238910133011E-05  5.88078041985849E-08
 cg2d: Sum(rhs),rhsMax =  -7.09466382323055E-05  5.78734320524873E-08
 cg2d: Sum(rhs),rhsMax =  -7.20789597122062E-05  5.69607132831097E-08
 cg2d: Sum(rhs),rhsMax =  -7.32207845251993E-05  5.60690481587065E-08
 cg2d: Sum(rhs),rhsMax =  -7.43720487531389E-05  5.51978527354112E-08
 cg2d: Sum(rhs),rhsMax =  -7.55326890095723E-05  5.43465586850012E-08
 cg2d: Sum(rhs),rhsMax =  -7.67026450417512E-05  5.35146130931951E-08
 cg2d: Sum(rhs),rhsMax =  -7.78824944637137E-05  5.27014783033309E-08
 cg2d: Sum(rhs),rhsMax =  -7.90715540346276E-05  5.19066313811058E-08
 cg2d: Sum(rhs),rhsMax =  -8.02697711766158E-05  5.11295642932984E-08
 cg2d: Sum(rhs),rhsMax =  -8.14770948297336E-05  5.03697833154310E-08
 cg2d: Sum(rhs),rhsMax =  -8.26934748797464E-05  4.96268088315816E-08
 cg2d: Sum(rhs),rhsMax =  -8.39188664419508E-05  4.89001750268492E-08
 cg2d: Sum(rhs),rhsMax =  -8.51532215947191E-05  4.81894295807354E-08
(PID.TID 0000.0001)      cg2d_init_res =   1.03619851169786E+00
(PID.TID 0000.0001)      cg2d_iters(min,last) =      -1     526
(PID.TID 0000.0001)      cg2d_last_res =   9.86794106141458E-08
(PID.TID 0000.0001) // =======================================================
(PID.TID 0000.0001) // Begin MONITOR dynamic field statistics
(PID.TID 0000.0001) // =======================================================
(PID.TID 0000.0001) %MON time_tsnumber                =                   112
(PID.TID 0000.0001) %MON time_secondsf                =   6.0480000000000E+05
(PID.TID 0000.0001) %MON dynstat_eta_max              =   5.0237426300959E-08
(PID.TID 0000.0001) %MON dynstat_eta_min              =  -6.7645264010856E-08
(PID.TID 0000.0001) %MON dynstat_eta_mean             =   3.9544256801450E-13
(PID.TID 0000.0001) %MON dynstat_eta_sd               =   1.4103185716418E-08
(PID.TID 0000.0001) %MON dynstat_eta_del2             =   3.8096137043279E-12
(PID.TID 0000.0001) %MON dynstat_uvel_max             =   1.6613886020592E-07
(PID.TID 0000.0001) %MON dynstat_uvel_min             =  -2.2583415864848E-07
(PID.TID 0000.0001) %MON dynstat_uvel_mean            =  -2.2117942290926E-13
(PID.TID 0000.0001) %MON dynstat_uvel_sd              =   4.5467879105478E-08
(PID.TID 0000.0001) %MON dynstat_uvel_del2            =   2.8764094245773E-11
(PID.TID 0000.0001) %MON dynstat_vvel_max             =   1.8691906372192E-07
(PID.TID 0000.0001) %MON dynstat_vvel_min             =  -2.1172177338154E-07
(PID.TID 0000.0001) %MON dynstat_vvel_mean            =   4.4060835605496E-13
(PID.TID 0000.0001) %MON dynstat_vvel_sd              =   4.8107950086753E-08
(PID.TID 0000.0001) %MON dynstat_vvel_del2            =   3.1260535080874E-11
(PID.TID 0000.0001) %MON dynstat_wvel_max             =   9.2977580918863E-14
(PID.TID 0000.0001) %MON dynstat_wvel_min             =  -9.7105241447792E-14
(PID.TID 0000.0001) %MON dynstat_wvel_mean            =  -3.2531547028024E-27
(PID.TID 0000.0001) %MON dynstat_wvel_sd              =   2.3692001015668E-14
(PID.TID 0000.0001) %MON dynstat_wvel_del2            =   1.3912514403137E-17
(PID.TID 0000.0001) %MON dynstat_theta_max            =   2.0000000000000E+01
(PID.TID 0000.0001) %MON dynstat_theta_min            =   2.0000000000000E+01
(PID.TID 0000.0001) %MON dynstat_theta_mean           =   2.0000000000000E+01
(PID.TID 0000.0001) %MON dynstat_theta_sd             =   0.0000000000000E+00
(PID.TID 0000.0001) %MON dynstat_theta_del2           =   0.0000000000000E+00
(PID.TID 0000.0001) %MON dynstat_salt_max             =   3.0000000000000E+01
(PID.TID 0000.0001) %MON dynstat_salt_min             =   3.0000000000000E+01
(PID.TID 0000.0001) %MON dynstat_salt_mean            =   3.0000000000000E+01
(PID.TID 0000.0001) %MON dynstat_salt_sd              =   0.0000000000000E+00
(PID.TID 0000.0001) %MON dynstat_salt_del2            =   0.0000000000000E+00
(PID.TID 0000.0001) %MON trAdv_CFL_u_max              =   2.4672559769518E-07
(PID.TID 0000.0001) %MON trAdv_CFL_v_max              =   2.3067294686434E-07
(PID.TID 0000.0001) %MON trAdv_CFL_w_max              =   1.0197269330536E-13
(PID.TID 0000.0001) %MON advcfl_uvel_max              =   2.4390089134036E-07
(PID.TID 0000.0001) %MON advcfl_vvel_max              =   2.2865951525206E-07
(PID.TID 0000.0001) %MON advcfl_wvel_max              =   2.0974732152723E-13
(PID.TID 0000.0001) %MON advcfl_W_hf_max              =   0.0000000000000E+00
(PID.TID 0000.0001) %MON pe_b_mean                    =   1.9512075040550E-19
(PID.TID 0000.0001) %MON ke_max                       =   2.5389096108478E-14
(PID.TID 0000.0001) %MON ke_mean                      =   2.1819455458842E-15
(PID.TID 0000.0001) %MON ke_vol                       =   7.5645000000000E+15
(PID.TID 0000.0001) %MON vort_r_min                   =  -2.0554592948014E-11
(PID.TID 0000.0001) %MON vort_r_max                   =   2.0346844227835E-11
(PID.TID 0000.0001) %MON vort_a_mean                  =   8.2300000000000E-05
(PID.TID 0000.0001) %MON vort_a_sd                    =   7.1297555115570E-06
(PID.TID 0000.0001) %MON vort_p_mean                  =   8.3303658536586E-05
(PID.TID 0000.0001) %MON vort_p_sd                    =   1.7411470288296E-05
(PID.TID 0000.0001) %MON surfExpan_theta_mean         =  -6.5094698667622E-26
(PID.TID 0000.0001) %MON surfExpan_salt_mean          =  -9.7533978936980E-26
(PID.TID 0000.0001) // =======================================================
(PID.TID 0000.0001) // End MONITOR dynamic field statistics
(PID.TID 0000.0001) // =======================================================
 cg2d: Sum(rhs),rhsMax =  -8.63965004600353E-05  4.74941333544130E-08
 cg2d: Sum(rhs),rhsMax =  -8.76486592809272E-05  4.68138600746121E-08
 cg2d: Sum(rhs),rhsMax =  -8.89096604421544E-05  4.61481960157084E-08
 cg2d: Sum(rhs),rhsMax =  -9.01794673870723E-05  4.54967396812349E-08
 cg2d: Sum(rhs),rhsMax =  -9.14586073329691E-05  4.48591014725759E-08
 cg2d: Sum(rhs),rhsMax =  -9.27464913487884E-05  4.42349034286055E-08
 cg2d: Sum(rhs),rhsMax =  -9.40430895901589E-05  4.36237788239895E-08
 cg2d: Sum(rhs),rhsMax =  -9.53483729036774E-05  4.30253719218112E-08
 cg2d: Sum(rhs),rhsMax =  -9.66623149706155E-05  4.24393376470127E-08
 cg2d: Sum(rhs),rhsMax =  -9.79848937763417E-05  4.18653412867278E-08
 cg2d: Sum(rhs),rhsMax =  -9.93160852957760E-05  4.13030581923972E-08
 cg2d: Sum(rhs),rhsMax =  -1.00655876004877E-04  4.07521734873327E-08
 cg2d: Sum(rhs),rhsMax =  -1.02004246018768E-04  4.02123817801907E-08
 cg2d: Sum(rhs),rhsMax =  -1.03361184451809E-04  3.96833868841237E-08
 cg2d: Sum(rhs),rhsMax =  -1.04726679756660E-04  3.91649015420157E-08
 cg2d: Sum(rhs),rhsMax =  -1.06100725400986E-04  3.86566471578837E-08
(PID.TID 0000.0001)      cg2d_init_res =   8.71407981080043E-01
(PID.TID 0000.0001)      cg2d_iters(min,last) =      -1     527
(PID.TID 0000.0001)      cg2d_last_res =   9.47796944614608E-08
(PID.TID 0000.0001) // =======================================================
(PID.TID 0000.0001) // Begin MONITOR dynamic field statistics
(PID.TID 0000.0001) // =======================================================
(PID.TID 0000.0001) %MON time_tsnumber                =                   128
(PID.TID 0000.0001) %MON time_secondsf                =   6.9120000000000E+05
(PID.TID 0000.0001) %MON dynstat_eta_max              =   4.3183766642916E-08
(PID.TID 0000.0001) %MON dynstat_eta_min              =  -6.2851979763668E-08
(PID.TID 0000.0001) %MON dynstat_eta_mean             =   3.9525555840903E-13
(PID.TID 0000.0001) %MON dynstat_eta_sd               =   1.3328797312013E-08
(PID.TID 0000.0001) %MON dynstat_eta_del2             =   2.9414818918342E-12
(PID.TID 0000.0001) %MON dynstat_uvel_max             =   1.3570658011537E-07
(PID.TID 0000.0001) %MON dynstat_uvel_min             =  -1.8957788496873E-07
(PID.TID 0000.0001) %MON dynstat_uvel_mean            =  -3.5615150237661E-13
(PID.TID 0000.0001) %MON dynstat_uvel_sd              =   3.7856940870648E-08
(PID.TID 0000.0001) %MON dynstat_uvel_del2            =   2.0665492695783E-11
(PID.TID 0000.0001) %MON dynstat_vvel_max             =   1.5139842431853E-07
(PID.TID 0000.0001) %MON dynstat_vvel_min             =  -1.8452170153730E-07
(PID.TID 0000.0001) %MON dynstat_vvel_mean            =   3.6874960047579E-13
(PID.TID 0000.0001) %MON dynstat_vvel_sd              =   3.9418860284628E-08
(PID.TID 0000.0001) %MON dynstat_vvel_del2            =   2.2627639211318E-11
(PID.TID 0000.0001) %MON dynstat_wvel_max             =   7.5096899969651E-14
(PID.TID 0000.0001) %MON dynstat_wvel_min             =  -8.2404986248008E-14
(PID.TID 0000.0001) %MON dynstat_wvel_mean            =  -9.3101046110743E-27
(PID.TID 0000.0001) %MON dynstat_wvel_sd              =   2.0208344322305E-14
(PID.TID 0000.0001) %MON dynstat_wvel_del2            =   9.3859054034692E-18
(PID.TID 0000.0001) %MON dynstat_theta_max            =   2.0000000000000E+01
(PID.TID 0000.0001) %MON dynstat_theta_min            =   2.0000000000000E+01
(PID.TID 0000.0001) %MON dynstat_theta_mean           =   2.0000000000000E+01
(PID.TID 0000.0001) %MON dynstat_theta_sd             =   0.0000000000000E+00
(PID.TID 0000.0001) %MON dynstat_theta_del2           =   0.0000000000000E+00
(PID.TID 0000.0001) %MON dynstat_salt_max             =   3.0000000000000E+01
(PID.TID 0000.0001) %MON dynstat_salt_min             =   3.0000000000000E+01
(PID.TID 0000.0001) %MON dynstat_salt_mean            =   3.0000000000000E+01
(PID.TID 0000.0001) %MON dynstat_salt_sd              =   0.0000000000000E+00
(PID.TID 0000.0001) %MON dynstat_salt_del2            =   0.0000000000000E+00
(PID.TID 0000.0001) %MON trAdv_CFL_u_max              =   2.0689984312219E-07
(PID.TID 0000.0001) %MON trAdv_CFL_v_max              =   2.0098952448751E-07
(PID.TID 0000.0001) %MON trAdv_CFL_w_max              =   8.1805165703841E-14
(PID.TID 0000.0001) %MON advcfl_uvel_max              =   2.0474411576623E-07
(PID.TID 0000.0001) %MON advcfl_vvel_max              =   1.9928343766029E-07
(PID.TID 0000.0001) %MON advcfl_wvel_max              =   1.7799477029570E-13
(PID.TID 0000.0001) %MON advcfl_W_hf_max              =   0.0000000000000E+00
(PID.TID 0000.0001) %MON pe_b_mean                    =   1.7428135802006E-19
(PID.TID 0000.0001) %MON ke_max                       =   1.7844399871617E-14
(PID.TID 0000.0001) %MON ke_mean                      =   1.4874261321727E-15
(PID.TID 0000.0001) %MON ke_vol                       =   7.5645000000000E+15
(PID.TID 0000.0001) %MON vort_r_min                   =  -1.6134035146421E-11
(PID.TID 0000.0001) %MON vort_r_max                   =   1.5343182626446E-11
(PID.TID 0000.0001) %MON vort_a_mean                  =   8.2300000000000E-05
(PID.TID 0000.0001) %MON vort_a_sd                    =   7.1297555115635E-06
(PID.TID 0000.0001) %MON vort_p_mean                  =   8.3303658536585E-05
(PID.TID 0000.0001) %MON vort_p_sd                    =   1.7411470288833E-05
(PID.TID 0000.0001) %MON surfExpan_theta_mean         =  -1.8544321806475E-25
(PID.TID 0000.0001) %MON surfExpan_salt_mean          =  -2.7829375033781E-25
(PID.TID 0000.0001) // =======================================================
(PID.TID 0000.0001) // End MONITOR dynamic field statistics
(PID.TID 0000.0001) // =======================================================
 cg2d: Sum(rhs),rhsMax =  -1.07483316092869E-04  3.81583535345871E-08
 cg2d: Sum(rhs),rhsMax =  -1.08874449876436E-04  3.76697586179156E-08
 cg2d: Sum(rhs),rhsMax =  -1.10274125912973E-04  3.71906082471027E-08
 cg2d: Sum(rhs),rhsMax =  -1.11682347227921E-04  3.67206559117874E-08
 cg2d: Sum(rhs),rhsMax =  -1.13099120839754E-04  3.62596625154096E-08
 cg2d: Sum(rhs),rhsMax =  -1.14524451647863E-04  3.58073961450175E-08
 cg2d: Sum(rhs),rhsMax =  -1.15958352354102E-04  3.53636318474380E-08
 cg2d: Sum(rhs),rhsMax =  -1.17400834964791E-04  3.49281514117466E-08
 cg2d: Sum(rhs),rhsMax =  -1.18851914927373E-04  3.45007431579567E-08
 cg2d: Sum(rhs),rhsMax =  -1.20311607271221E-04  3.40812017318402E-08
 cg2d: Sum(rhs),rhsMax =  -1.21779933254711E-04  3.36693279057793E-08
 cg2d: Sum(rhs),rhsMax =  -1.23256911369724E-04  3.32649283855405E-08
 cg2d: Sum(rhs),rhsMax =  -1.24742566286144E-04  3.28678156228831E-08
 cg2d: Sum(rhs),rhsMax =  -1.26236915413777E-04  3.24778076338839E-08
 cg2d: Sum(rhs),rhsMax =  -1.27739984307521E-04  3.20947278228645E-08
 cg2d: Sum(rhs),rhsMax =  -1.29251798122661E-04  3.17184048117495E-08
(PID.TID 0000.0001)      cg2d_init_res =   7.51495446181736E-01
(PID.TID 0000.0001)      cg2d_iters(min,last) =      -1     527
(PID.TID 0000.0001)      cg2d_last_res =   9.46544010280520E-08
(PID.TID 0000.0001) // =======================================================
(PID.TID 0000.0001) // Begin MONITOR dynamic field statistics
(PID.TID 0000.0001) // =======================================================
(PID.TID 0000.0001) %MON time_tsnumber                =                   144
(PID.TID 0000.0001) %MON time_secondsf                =   7.7760000000000E+05
(PID.TID 0000.0001) %MON dynstat_eta_max              =   3.7091792033010E-08
(PID.TID 0000.0001) %MON dynstat_eta_min              =  -5.8711700661065E-08
(PID.TID 0000.0001) %MON dynstat_eta_mean             =   3.9507768248394E-13
(PID.TID 0000.0001) %MON dynstat_eta_sd               =   1.2773524346935E-08
(PID.TID 0000.0001) %MON dynstat_eta_del2             =   2.3406403258431E-12
(PID.TID 0000.0001) %MON dynstat_uvel_max             =   1.1184415926250E-07
(PID.TID 0000.0001) %MON dynstat_uvel_min             =  -1.6240811088292E-07
(PID.TID 0000.0001) %MON dynstat_uvel_mean            =  -4.6129070070119E-13
(PID.TID 0000.0001) %MON dynstat_uvel_sd              =   3.2292855687457E-08
(PID.TID 0000.0001) %MON dynstat_uvel_del2            =   1.5496216300515E-11
(PID.TID 0000.0001) %MON dynstat_vvel_max             =   1.2473553409528E-07
(PID.TID 0000.0001) %MON dynstat_vvel_min             =  -1.6118080821945E-07
(PID.TID 0000.0001) %MON dynstat_vvel_mean            =   3.1588330690031E-13
(PID.TID 0000.0001) %MON dynstat_vvel_sd              =   3.3035920840188E-08
(PID.TID 0000.0001) %MON dynstat_vvel_del2            =   1.6982076062491E-11
(PID.TID 0000.0001) %MON dynstat_wvel_max             =   6.6362904762585E-14
(PID.TID 0000.0001) %MON dynstat_wvel_min             =  -7.0731449168804E-14
(PID.TID 0000.0001) %MON dynstat_wvel_mean            =   4.8146539743795E-28
(PID.TID 0000.0001) %MON dynstat_wvel_sd              =   1.8036894174208E-14
(PID.TID 0000.0001) %MON dynstat_wvel_del2            =   6.6429451704457E-18
(PID.TID 0000.0001) %MON dynstat_theta_max            =   2.0000000000000E+01
(PID.TID 0000.0001) %MON dynstat_theta_min            =   2.0000000000000E+01
(PID.TID 0000.0001) %MON dynstat_theta_mean           =   2.0000000000000E+01
(PID.TID 0000.0001) %MON dynstat_theta_sd             =   0.0000000000000E+00
(PID.TID 0000.0001) %MON dynstat_theta_del2           =   0.0000000000000E+00
(PID.TID 0000.0001) %MON dynstat_salt_max             =   3.0000000000000E+01
(PID.TID 0000.0001) %MON dynstat_salt_min             =   3.0000000000000E+01
(PID.TID 0000.0001) %MON dynstat_salt_mean            =   3.0000000000000E+01
(PID.TID 0000.0001) %MON dynstat_salt_sd              =   0.0000000000000E+00
(PID.TID 0000.0001) %MON dynstat_salt_del2            =   0.0000000000000E+00
(PID.TID 0000.0001) %MON trAdv_CFL_u_max              =   1.7680308738882E-07
(PID.TID 0000.0001) %MON trAdv_CFL_v_max              =   1.7554233670334E-07
(PID.TID 0000.0001) %MON trAdv_CFL_w_max              =   7.2174664547298E-14
(PID.TID 0000.0001) %MON advcfl_uvel_max              =   1.7540075975356E-07
(PID.TID 0000.0001) %MON advcfl_vvel_max              =   1.7407527287701E-07
(PID.TID 0000.0001) %MON advcfl_wvel_max              =   1.5277993020462E-13
(PID.TID 0000.0001) %MON advcfl_W_hf_max              =   0.0000000000000E+00
(PID.TID 0000.0001) %MON pe_b_mean                    =   1.6006282883427E-19
(PID.TID 0000.0001) %MON ke_max                       =   1.3146475571574E-14
(PID.TID 0000.0001) %MON ke_mean                      =   1.0627624911749E-15
(PID.TID 0000.0001) %MON ke_vol                       =   7.5645000000000E+15
(PID.TID 0000.0001) %MON vort_r_min                   =  -1.2875024002691E-11
(PID.TID 0000.0001) %MON vort_r_max                   =   1.1831904727002E-11
(PID.TID 0000.0001) %MON vort_a_mean                  =   8.2300000000000E-05
(PID.TID 0000.0001) %MON vort_a_sd                    =   7.1297555115607E-06
(PID.TID 0000.0001) %MON vort_p_mean                  =   8.3303658536585E-05
(PID.TID 0000.0001) %MON vort_p_sd                    =   1.7411470286044E-05
(PID.TID 0000.0001) %MON surfExpan_theta_mean         =   9.6847941036444E-27
(PID.TID 0000.0001) %MON surfExpan_salt_mean          =   1.4578789117274E-26
(PID.TID 0000.0001) // =======================================================
(PID.TID 0000.0001) // End MONITOR dynamic field statistics
(PID.TID 0000.0001) // =======================================================
 cg2d: Sum(rhs),rhsMax =  -1.30772385241811E-04  3.13486722747068E-08
 cg2d: Sum(rhs),rhsMax =  -1.32301778446529E-04  3.09853687779496E-08
 cg2d: Sum(rhs),rhsMax =  -1.33840010607709E-04  3.06283376246012E-08
 cg2d: Sum(rhs),rhsMax =  -1.35387119749209E-04  3.02774267044946E-08
 cg2d: Sum(rhs),rhsMax =  -1.36943144978841E-04  2.99324883487654E-08
 cg2d: Sum(rhs),rhsMax =  -1.38508127744992E-04  2.95933791891022E-08
 cg2d: Sum(rhs),rhsMax =  -1.40082112622298E-04  2.92599600215224E-08
 cg2d: Sum(rhs),rhsMax =  -1.41665142330556E-04  2.89320956745365E-08
 cg2d: Sum(rhs),rhsMax =  -1.43257266100331E-04  2.86096548815816E-08
 cg2d: Sum(rhs),rhsMax =  -1.44858532271793E-04  2.82925101575955E-08
 cg2d: Sum(rhs),rhsMax =  -1.46468992645778E-04  2.79805376795984E-08
 cg2d: Sum(rhs),rhsMax =  -1.48088700422151E-04  2.76736171711745E-08
 cg2d: Sum(rhs),rhsMax =  -1.49717711231308E-04  2.73716317907247E-08
 cg2d: Sum(rhs),rhsMax =  -1.51356083849463E-04  2.70744680233703E-08
 cg2d: Sum(rhs),rhsMax =  -1.53003874978246E-04  2.67820155764034E-08
 cg2d: Sum(rhs),rhsMax =  -1.54661149535992E-04  2.64941672781602E-08
(PID.TID 0000.0001)      cg2d_init_res =   6.60971297124986E-01
(PID.TID 0000.0001)      cg2d_iters(min,last) =      -1     527
(PID.TID 0000.0001)      cg2d_last_res =   9.17023736972587E-08
(PID.TID 0000.0001) // =======================================================
(PID.TID 0000.0001) // Begin MONITOR dynamic field statistics
(PID.TID 0000.0001) // =======================================================
(PID.TID 0000.0001) %MON time_tsnumber                =                   160
(PID.TID 0000.0001) %MON time_secondsf                =   8.6400000000000E+05
(PID.TID 0000.0001) %MON dynstat_eta_max              =   3.4154944490816E-08
(PID.TID 0000.0001) %MON dynstat_eta_min              =  -5.4966248381518E-08
(PID.TID 0000.0001) %MON dynstat_eta_mean             =   3.9487949298874E-13
(PID.TID 0000.0001) %MON dynstat_eta_sd               =   1.2353455659738E-08
(PID.TID 0000.0001) %MON dynstat_eta_del2             =   1.9068217484684E-12
(PID.TID 0000.0001) %MON dynstat_uvel_max             =   9.3410236457221E-08
(PID.TID 0000.0001) %MON dynstat_uvel_min             =  -1.4323112679851E-07
(PID.TID 0000.0001) %MON dynstat_uvel_mean            =  -5.3454187725610E-13
(PID.TID 0000.0001) %MON dynstat_uvel_sd              =   2.8067529478622E-08
(PID.TID 0000.0001) %MON dynstat_uvel_del2            =   1.2018190812624E-11
(PID.TID 0000.0001) %MON dynstat_vvel_max             =   1.0429633974415E-07
(PID.TID 0000.0001) %MON dynstat_vvel_min             =  -1.4104963634240E-07
(PID.TID 0000.0001) %MON dynstat_vvel_mean            =   2.7478823011285E-13
(PID.TID 0000.0001) %MON dynstat_vvel_sd              =   2.8202729447276E-08
(PID.TID 0000.0001) %MON dynstat_vvel_del2            =   1.3105429603540E-11
(PID.TID 0000.0001) %MON dynstat_wvel_max             =   5.9744132507866E-14
(PID.TID 0000.0001) %MON dynstat_wvel_min             =  -6.1000363400510E-14
(PID.TID 0000.0001) %MON dynstat_wvel_mean            =  -8.1449040728051E-27
(PID.TID 0000.0001) %MON dynstat_wvel_sd              =   1.6618448568219E-14
(PID.TID 0000.0001) %MON dynstat_wvel_del2            =   4.8811773576958E-18
(PID.TID 0000.0001) %MON dynstat_theta_max            =   2.0000000000000E+01
(PID.TID 0000.0001) %MON dynstat_theta_min            =   2.0000000000000E+01
(PID.TID 0000.0001) %MON dynstat_theta_mean           =   2.0000000000000E+01
(PID.TID 0000.0001) %MON dynstat_theta_sd             =   0.0000000000000E+00
(PID.TID 0000.0001) %MON dynstat_theta_del2           =   0.0000000000000E+00
(PID.TID 0000.0001) %MON dynstat_salt_max             =   3.0000000000000E+01
(PID.TID 0000.0001) %MON dynstat_salt_min             =   3.0000000000000E+01
(PID.TID 0000.0001) %MON dynstat_salt_mean            =   3.0000000000000E+01
(PID.TID 0000.0001) %MON dynstat_salt_sd              =   0.0000000000000E+00
(PID.TID 0000.0001) %MON dynstat_salt_del2            =   0.0000000000000E+00
(PID.TID 0000.0001) %MON trAdv_CFL_u_max              =   1.5589505639512E-07
(PID.TID 0000.0001) %MON trAdv_CFL_v_max              =   1.5360296590312E-07
(PID.TID 0000.0001) %MON trAdv_CFL_w_max              =   6.4931026633808E-14
(PID.TID 0000.0001) %MON advcfl_uvel_max              =   1.5468961694239E-07
(PID.TID 0000.0001) %MON advcfl_vvel_max              =   1.5233360724979E-07
(PID.TID 0000.0001) %MON advcfl_wvel_max              =   1.3176078494510E-13
(PID.TID 0000.0001) %MON advcfl_W_hf_max              =   0.0000000000000E+00
(PID.TID 0000.0001) %MON pe_b_mean                    =   1.4970831742207E-19
(PID.TID 0000.0001) %MON ke_max                       =   1.0204084014881E-14
(PID.TID 0000.0001) %MON ke_mean                      =   7.8837223398241E-16
(PID.TID 0000.0001) %MON ke_vol                       =   7.5645000000000E+15
(PID.TID 0000.0001) %MON vort_r_min                   =  -1.0390471126656E-11
(PID.TID 0000.0001) %MON vort_r_max                   =   9.8988069122409E-12
(PID.TID 0000.0001) %MON vort_a_mean                  =   8.2300000000000E-05
(PID.TID 0000.0001) %MON vort_a_sd                    =   7.1297555115642E-06
(PID.TID 0000.0001) %MON vort_p_mean                  =   8.3303658536585E-05
(PID.TID 0000.0001) %MON vort_p_sd                    =   1.7411470281576E-05
(PID.TID 0000.0001) %MON surfExpan_theta_mean         =  -1.6244512860505E-25
(PID.TID 0000.0001) %MON surfExpan_salt_mean          =  -2.4386391744809E-25
(PID.TID 0000.0001) // =======================================================
(PID.TID 0000.0001) // End MONITOR dynamic field statistics
(PID.TID 0000.0001) // =======================================================
 cg2d: Sum(rhs),rhsMax =  -1.56327969792759E-04  2.62108189802196E-08
 cg2d: Sum(rhs),rhsMax =  -1.58004401724752E-04  2.59318694628051E-08
 cg2d: Sum(rhs),rhsMax =  -1.59690511929660E-04  2.56572203433013E-08
 cg2d: Sum(rhs),rhsMax =  -1.61385646277251E-04  2.53867759898278E-08
 cg2d: Sum(rhs),rhsMax =  -1.63090574270090E-04  2.51204434210801E-08
 cg2d: Sum(rhs),rhsMax =  -1.64805361006134E-04  2.48581322604735E-08
 cg2d: Sum(rhs),rhsMax =  -1.66530069557864E-04  2.45997546119095E-08
 cg2d: Sum(rhs),rhsMax =  -1.68264755570538E-04  2.43452250088662E-08
 cg2d: Sum(rhs),rhsMax =  -1.70009470460213E-04  2.40944603322153E-08
 cg2d: Sum(rhs),rhsMax =  -1.71764252509220E-04  2.38473797384267E-08
 cg2d: Sum(rhs),rhsMax =  -1.73529130368122E-04  2.36039045896565E-08
 cg2d: Sum(rhs),rhsMax =  -1.75304112440371E-04  2.33639583859489E-08
 cg2d: Sum(rhs),rhsMax =  -1.77089189968470E-04  2.31274666997549E-08
 cg2d: Sum(rhs),rhsMax =  -1.78884333937665E-04  2.28943571125529E-08
 cg2d: Sum(rhs),rhsMax =  -1.80689484412531E-04  2.26645591535602E-08
 cg2d: Sum(rhs),rhsMax =  -1.82504545294157E-04  2.24380042404373E-08
(PID.TID 0000.0001)      cg2d_init_res =   5.91045524632452E-01
(PID.TID 0000.0001)      cg2d_iters(min,last) =      -1     526
(PID.TID 0000.0001)      cg2d_last_res =   9.58259470814473E-08
(PID.TID 0000.0001) // =======================================================
(PID.TID 0000.0001) // Begin MONITOR dynamic field statistics
(PID.TID 0000.0001) // =======================================================
(PID.TID 0000.0001) %MON time_tsnumber                =                   176
(PID.TID 0000.0001) %MON time_secondsf                =   9.5040000000000E+05
(PID.TID 0000.0001) %MON dynstat_eta_max              =   3.3442093875180E-08
(PID.TID 0000.0001) %MON dynstat_eta_min              =  -5.1317181851076E-08
(PID.TID 0000.0001) %MON dynstat_eta_mean             =   3.9462161106461E-13
(PID.TID 0000.0001) %MON dynstat_eta_sd               =   1.2014035453545E-08
(PID.TID 0000.0001) %MON dynstat_eta_del2             =   1.5829845073667E-12
(PID.TID 0000.0001) %MON dynstat_uvel_max             =   8.1483334959524E-08
(PID.TID 0000.0001) %MON dynstat_uvel_min             =  -1.2668457460397E-07
(PID.TID 0000.0001) %MON dynstat_uvel_mean            =  -5.7497771716086E-13
(PID.TID 0000.0001) %MON dynstat_uvel_sd              =   2.4762483098755E-08
(PID.TID 0000.0001) %MON dynstat_uvel_del2            =   9.5742487049566E-12
(PID.TID 0000.0001) %MON dynstat_vvel_max             =   8.8489639237848E-08
(PID.TID 0000.0001) %MON dynstat_vvel_min             =  -1.2356863861516E-07
(PID.TID 0000.0001) %MON dynstat_vvel_mean            =   2.4116781174079E-13
(PID.TID 0000.0001) %MON dynstat_vvel_sd              =   2.4457074960056E-08
(PID.TID 0000.0001) %MON dynstat_vvel_del2            =   1.0342674950477E-11
(PID.TID 0000.0001) %MON dynstat_wvel_max             =   5.4557980209147E-14
(PID.TID 0000.0001) %MON dynstat_wvel_min             =  -5.2358966726729E-14
(PID.TID 0000.0001) %MON dynstat_wvel_mean            =  -4.6010874878902E-27
(PID.TID 0000.0001) %MON dynstat_wvel_sd              =   1.5632722515029E-14
(PID.TID 0000.0001) %MON dynstat_wvel_del2            =   3.6966664710802E-18
(PID.TID 0000.0001) %MON dynstat_theta_max            =   2.0000000000000E+01
(PID.TID 0000.0001) %MON dynstat_theta_min            =   2.0000000000000E+01
(PID.TID 0000.0001) %MON dynstat_theta_mean           =   2.0000000000000E+01
(PID.TID 0000.0001) %MON dynstat_theta_sd             =   0.0000000000000E+00
(PID.TID 0000.0001) %MON dynstat_theta_del2           =   0.0000000000000E+00
(PID.TID 0000.0001) %MON dynstat_salt_max             =   3.0000000000000E+01
(PID.TID 0000.0001) %MON dynstat_salt_min             =   3.0000000000000E+01
(PID.TID 0000.0001) %MON dynstat_salt_mean            =   3.0000000000000E+01
(PID.TID 0000.0001) %MON dynstat_salt_sd              =   0.0000000000000E+00
(PID.TID 0000.0001) %MON dynstat_salt_del2            =   0.0000000000000E+00
(PID.TID 0000.0001) %MON trAdv_CFL_u_max              =   1.3786291950760E-07
(PID.TID 0000.0001) %MON trAdv_CFL_v_max              =   1.3455989490791E-07
(PID.TID 0000.0001) %MON trAdv_CFL_w_max              =   5.9257855325079E-14
(PID.TID 0000.0001) %MON advcfl_uvel_max              =   1.3681934057229E-07
(PID.TID 0000.0001) %MON advcfl_vvel_max              =   1.3345412970437E-07
(PID.TID 0000.0001) %MON advcfl_wvel_max              =   1.1784523725176E-13
(PID.TID 0000.0001) %MON advcfl_W_hf_max              =   0.0000000000000E+00
(PID.TID 0000.0001) %MON pe_b_mean                    =   1.4159464412210E-19
(PID.TID 0000.0001) %MON ke_max                       =   7.9833926485144E-15
(PID.TID 0000.0001) %MON ke_mean                      =   6.0320249161713E-16
(PID.TID 0000.0001) %MON ke_vol                       =   7.5645000000000E+15
(PID.TID 0000.0001) %MON vort_r_min                   =  -8.6200486629789E-12
(PID.TID 0000.0001) %MON vort_r_max                   =   8.4259553778627E-12
(PID.TID 0000.0001) %MON vort_a_mean                  =   8.2300000000000E-05
(PID.TID 0000.0001) %MON vort_a_sd                    =   7.1297555115591E-06
(PID.TID 0000.0001) %MON vort_p_mean                  =   8.3303658536585E-05
(PID.TID 0000.0001) %MON vort_p_sd                    =   1.7411470276468E-05
(PID.TID 0000.0001) %MON surfExpan_theta_mean         =  -9.2289368606482E-26
(PID.TID 0000.0001) %MON surfExpan_salt_mean          =  -1.3845048184409E-25
(PID.TID 0000.0001) // =======================================================
(PID.TID 0000.0001) // End MONITOR dynamic field statistics
(PID.TID 0000.0001) // =======================================================
 cg2d: Sum(rhs),rhsMax =  -1.84329381702135E-04  2.22146256219276E-08
 cg2d: Sum(rhs),rhsMax =  -1.86163804270289E-04  2.19943583223667E-08
 cg2d: Sum(rhs),rhsMax =  -1.88007543268497E-04  2.17771390879947E-08
 cg2d: Sum(rhs),rhsMax =  -1.89860221304412E-04  2.15629063350142E-08
 cg2d: Sum(rhs),rhsMax =  -1.91721285744152E-04  2.13516000993343E-08
 cg2d: Sum(rhs),rhsMax =  -1.93592229356604E-04  2.11431619886519E-08
 cg2d: Sum(rhs),rhsMax =  -1.95469899050838E-04  2.09375351391666E-08
 cg2d: Sum(rhs),rhsMax =  -1.97352230520437E-04  2.07346641488723E-08
 cg2d: Sum(rhs),rhsMax =  -1.95754394955977E-04  2.05344950928223E-08
 cg2d: Sum(rhs),rhsMax =  -1.95214010951668E-04  2.03369753595711E-08
 cg2d: Sum(rhs),rhsMax =  -1.95769795844943E-04  2.01420537330162E-08
 cg2d: Sum(rhs),rhsMax =  -1.97456891209341E-04  1.99496803698044E-08
 cg2d: Sum(rhs),rhsMax =  -2.00309444849448E-04  1.97598065777943E-08
 cg2d: Sum(rhs),rhsMax =  -2.04360330031000E-04  1.95723850161857E-08
 cg2d: Sum(rhs),rhsMax =  -2.09639229666757E-04  1.93873694376287E-08
 cg2d: Sum(rhs),rhsMax =  -2.11669809106569E-04  1.92047147960393E-08
(PID.TID 0000.0001)      cg2d_init_res =   5.36227008741625E-01
(PID.TID 0000.0001)      cg2d_iters(min,last) =      -1     528
(PID.TID 0000.0001)      cg2d_last_res =   9.97617912280422E-08
(PID.TID 0000.0001) // =======================================================
(PID.TID 0000.0001) // Begin MONITOR dynamic field statistics
(PID.TID 0000.0001) // =======================================================
(PID.TID 0000.0001) %MON time_tsnumber                =                   192
(PID.TID 0000.0001) %MON time_secondsf                =   1.0368000000000E+06
(PID.TID 0000.0001) %MON dynstat_eta_max              =   3.2499007722337E-08
(PID.TID 0000.0001) %MON dynstat_eta_min              =  -4.7866411035122E-08
(PID.TID 0000.0001) %MON dynstat_eta_mean             =   3.9180908851373E-13
(PID.TID 0000.0001) %MON dynstat_eta_sd               =   1.1718411040776E-08
(PID.TID 0000.0001) %MON dynstat_eta_del2             =   1.3346811587455E-12
(PID.TID 0000.0001) %MON dynstat_uvel_max             =   7.2990903726050E-08
(PID.TID 0000.0001) %MON dynstat_uvel_min             =  -1.1231221118897E-07
(PID.TID 0000.0001) %MON dynstat_uvel_mean            =  -5.8288929665852E-13
(PID.TID 0000.0001) %MON dynstat_uvel_sd              =   2.2115350096975E-08
(PID.TID 0000.0001) %MON dynstat_uvel_del2            =   7.7932937171862E-12
(PID.TID 0000.0001) %MON dynstat_vvel_max             =   7.6672060021734E-08
(PID.TID 0000.0001) %MON dynstat_vvel_min             =  -1.0831434066039E-07
(PID.TID 0000.0001) %MON dynstat_vvel_mean            =   2.1231862181774E-13
(PID.TID 0000.0001) %MON dynstat_vvel_sd              =   2.1501675015490E-08
(PID.TID 0000.0001) %MON dynstat_vvel_del2            =   8.3156080589606E-12
(PID.TID 0000.0001) %MON dynstat_wvel_max             =   5.1092240531680E-14
(PID.TID 0000.0001) %MON dynstat_wvel_min             =  -4.4511315460127E-14
(PID.TID 0000.0001) %MON dynstat_wvel_mean            =   5.3894033233865E-27
(PID.TID 0000.0001) %MON dynstat_wvel_sd              =   1.4897314358595E-14
(PID.TID 0000.0001) %MON dynstat_wvel_del2            =   2.8699908939671E-18
(PID.TID 0000.0001) %MON dynstat_theta_max            =   2.0000000000000E+01
(PID.TID 0000.0001) %MON dynstat_theta_min            =   2.0000000000000E+01
(PID.TID 0000.0001) %MON dynstat_theta_mean           =   2.0000000000000E+01
(PID.TID 0000.0001) %MON dynstat_theta_sd             =   0.0000000000000E+00
(PID.TID 0000.0001) %MON dynstat_theta_del2           =   0.0000000000000E+00
(PID.TID 0000.0001) %MON dynstat_salt_max             =   3.0000000000000E+01
(PID.TID 0000.0001) %MON dynstat_salt_min             =   3.0000000000000E+01
(PID.TID 0000.0001) %MON dynstat_salt_mean            =   3.0000000000000E+01
(PID.TID 0000.0001) %MON dynstat_salt_sd              =   0.0000000000000E+00
(PID.TID 0000.0001) %MON dynstat_salt_del2            =   0.0000000000000E+00
(PID.TID 0000.0001) %MON trAdv_CFL_u_max              =   1.2220629915753E-07
(PID.TID 0000.0001) %MON trAdv_CFL_v_max              =   1.1794476886479E-07
(PID.TID 0000.0001) %MON trAdv_CFL_w_max              =   5.5406330001606E-14
(PID.TID 0000.0001) %MON advcfl_uvel_max              =   1.2129718808409E-07
(PID.TID 0000.0001) %MON advcfl_vvel_max              =   1.1697948791322E-07
(PID.TID 0000.0001) %MON advcfl_wvel_max              =   1.1035923954843E-13
(PID.TID 0000.0001) %MON advcfl_W_hf_max              =   0.0000000000000E+00
(PID.TID 0000.0001) %MON pe_b_mean                    =   1.3471205548209E-19
(PID.TID 0000.0001) %MON ke_max                       =   6.2849523097219E-15
(PID.TID 0000.0001) %MON ke_mean                      =   4.7377160772002E-16
(PID.TID 0000.0001) %MON ke_vol                       =   7.5645000000000E+15
(PID.TID 0000.0001) %MON vort_r_min                   =  -7.4165482756945E-12
(PID.TID 0000.0001) %MON vort_r_max                   =   7.1896990960390E-12
(PID.TID 0000.0001) %MON vort_a_mean                  =   8.2300000000000E-05
(PID.TID 0000.0001) %MON vort_a_sd                    =   7.1297555115596E-06
(PID.TID 0000.0001) %MON vort_p_mean                  =   8.3303658536586E-05
(PID.TID 0000.0001) %MON vort_p_sd                    =   1.7411470271324E-05
(PID.TID 0000.0001) %MON surfExpan_theta_mean         =   1.0792344353848E-25
(PID.TID 0000.0001) %MON surfExpan_salt_mean          =   1.6188344537566E-25
(PID.TID 0000.0001) // =======================================================
(PID.TID 0000.0001) // End MONITOR dynamic field statistics
(PID.TID 0000.0001) // =======================================================
 cg2d: Sum(rhs),rhsMax =  -2.13706020255926E-04  1.90243772397529E-08
 cg2d: Sum(rhs),rhsMax =  -2.15747891587172E-04  1.88463139382394E-08
 cg2d: Sum(rhs),rhsMax =  -2.17799443665826E-04  1.86704831403761E-08
 cg2d: Sum(rhs),rhsMax =  -2.19861496877512E-04  1.84968441289540E-08
 cg2d: Sum(rhs),rhsMax =  -2.21933104722716E-04  1.83253571827861E-08
 cg2d: Sum(rhs),rhsMax =  -2.24016354164048E-04  1.81559836077700E-08
 cg2d: Sum(rhs),rhsMax =  -2.26111561779863E-04  1.79886855949367E-08
 cg2d: Sum(rhs),rhsMax =  -2.28217929310610E-04  1.78234262884238E-08
 cg2d: Sum(rhs),rhsMax =  -2.30336821778966E-04  1.76601697025282E-08
 cg2d: Sum(rhs),rhsMax =  -2.32468438382000E-04  1.74988807285165E-08
 cg2d: Sum(rhs),rhsMax =  -2.34612955952409E-04  1.73395251093964E-08
 cg2d: Sum(rhs),rhsMax =  -2.36770539861500E-04  1.71820694019629E-08
 cg2d: Sum(rhs),rhsMax =  -2.38940614479345E-04  1.70264809450785E-08
 cg2d: Sum(rhs),rhsMax =  -2.41124097667391E-04  1.68727278967265E-08
 cg2d: Sum(rhs),rhsMax =  -2.43321130638709E-04  1.67207791150863E-08
 cg2d: Sum(rhs),rhsMax =  -2.45531849914165E-04  1.65706042129459E-08
(PID.TID 0000.0001)      cg2d_init_res =   4.92832909428438E-01
(PID.TID 0000.0001)      cg2d_iters(min,last) =      -1     533
(PID.TID 0000.0001)      cg2d_last_res =   9.86233045593106E-08
(PID.TID 0000.0001) // =======================================================
(PID.TID 0000.0001) // Begin MONITOR dynamic field statistics
(PID.TID 0000.0001) // =======================================================
(PID.TID 0000.0001) %MON time_tsnumber                =                   208
(PID.TID 0000.0001) %MON time_secondsf                =   1.1232000000000E+06
(PID.TID 0000.0001) %MON dynstat_eta_max              =   3.1128157727099E-08
(PID.TID 0000.0001) %MON dynstat_eta_min              =  -4.4601831953851E-08
(PID.TID 0000.0001) %MON dynstat_eta_mean             =   3.9210446331924E-13
(PID.TID 0000.0001) %MON dynstat_eta_sd               =   1.1441112172891E-08
(PID.TID 0000.0001) %MON dynstat_eta_del2             =   1.1400860012905E-12
(PID.TID 0000.0001) %MON dynstat_uvel_max             =   6.5479655735430E-08
(PID.TID 0000.0001) %MON dynstat_uvel_min             =  -9.9756013450408E-08
(PID.TID 0000.0001) %MON dynstat_uvel_mean            =  -5.5984066825084E-13
(PID.TID 0000.0001) %MON dynstat_uvel_sd              =   1.9953302060757E-08
(PID.TID 0000.0001) %MON dynstat_uvel_del2            =   6.4550686891975E-12
(PID.TID 0000.0001) %MON dynstat_vvel_max             =   6.7051133412114E-08
(PID.TID 0000.0001) %MON dynstat_vvel_min             =  -9.4944746984891E-08
(PID.TID 0000.0001) %MON dynstat_vvel_mean            =   1.8645872448285E-13
(PID.TID 0000.0001) %MON dynstat_vvel_sd              =   1.9137218291445E-08
(PID.TID 0000.0001) %MON dynstat_vvel_del2            =   6.7931313116490E-12
(PID.TID 0000.0001) %MON dynstat_wvel_max             =   4.7403541703073E-14
(PID.TID 0000.0001) %MON dynstat_wvel_min             =  -3.7343667749212E-14
(PID.TID 0000.0001) %MON dynstat_wvel_mean            =  -4.0561997103924E-27
(PID.TID 0000.0001) %MON dynstat_wvel_sd              =   1.4311941373272E-14
(PID.TID 0000.0001) %MON dynstat_wvel_del2            =   2.2750362049083E-18
(PID.TID 0000.0001) %MON dynstat_theta_max            =   2.0000000000000E+01
(PID.TID 0000.0001) %MON dynstat_theta_min            =   2.0000000000000E+01
(PID.TID 0000.0001) %MON dynstat_theta_mean           =   2.0000000000000E+01
(PID.TID 0000.0001) %MON dynstat_theta_sd             =   0.0000000000000E+00
(PID.TID 0000.0001) %MON dynstat_theta_del2           =   0.0000000000000E+00
(PID.TID 0000.0001) %MON dynstat_salt_max             =   3.0000000000000E+01
(PID.TID 0000.0001) %MON dynstat_salt_min             =   3.0000000000000E+01
(PID.TID 0000.0001) %MON dynstat_salt_mean            =   3.0000000000000E+01
(PID.TID 0000.0001) %MON dynstat_salt_sd              =   0.0000000000000E+00
(PID.TID 0000.0001) %MON dynstat_salt_del2            =   0.0000000000000E+00
(PID.TID 0000.0001) %MON trAdv_CFL_u_max              =   1.0853269877837E-07
(PID.TID 0000.0001) %MON trAdv_CFL_v_max              =   1.0338980061908E-07
(PID.TID 0000.0001) %MON trAdv_CFL_w_max              =   5.1465979270304E-14
(PID.TID 0000.0001) %MON advcfl_uvel_max              =   1.0773649452644E-07
(PID.TID 0000.0001) %MON advcfl_vvel_max              =   1.0254032674368E-07
(PID.TID 0000.0001) %MON advcfl_wvel_max              =   1.0239165007864E-13
(PID.TID 0000.0001) %MON advcfl_W_hf_max              =   0.0000000000000E+00
(PID.TID 0000.0001) %MON pe_b_mean                    =   1.2841196599619E-19
(PID.TID 0000.0001) %MON ke_max                       =   4.9656846242438E-15
(PID.TID 0000.0001) %MON ke_mean                      =   3.8063010145437E-16
(PID.TID 0000.0001) %MON ke_vol                       =   7.5645000000000E+15
(PID.TID 0000.0001) %MON vort_r_min                   =  -6.4307933664335E-12
(PID.TID 0000.0001) %MON vort_r_max                   =   6.2254253584648E-12
(PID.TID 0000.0001) %MON vort_a_mean                  =   8.2299999999999E-05
(PID.TID 0000.0001) %MON vort_a_sd                    =   7.1297555115673E-06
(PID.TID 0000.0001) %MON vort_p_mean                  =   8.3303658536585E-05
(PID.TID 0000.0001) %MON vort_p_sd                    =   1.7411470266458E-05
(PID.TID 0000.0001) %MON surfExpan_theta_mean         =  -8.1307709617548E-26
(PID.TID 0000.0001) %MON surfExpan_salt_mean          =  -1.2202380460772E-25
(PID.TID 0000.0001) // =======================================================
(PID.TID 0000.0001) // End MONITOR dynamic field statistics
(PID.TID 0000.0001) // =======================================================
 cg2d: Sum(rhs),rhsMax =  -2.47755810587861E-04  1.64221735191982E-08
 cg2d: Sum(rhs),rhsMax =  -2.49993748029725E-04  1.62754580281277E-08
 cg2d: Sum(rhs),rhsMax =  -2.52245788012251E-04  1.61304294228955E-08
 cg2d: Sum(rhs),rhsMax =  -2.54511582853343E-04  1.59870600411711E-08
 cg2d: Sum(rhs),rhsMax =  -2.56792169683176E-04  1.58453228529321E-08
 cg2d: Sum(rhs),rhsMax =  -2.59087067666408E-04  1.57051915102561E-08
 cg2d: Sum(rhs),rhsMax =  -2.61396348119081E-04  1.55666399919176E-08
 cg2d: Sum(rhs),rhsMax =  -2.63720426531005E-04  1.54296432976235E-08
 cg2d: Sum(rhs),rhsMax =  -2.66059394106216E-04  1.52941766644130E-08
 cg2d: Sum(rhs),rhsMax =  -2.68413380987504E-04  1.51602159939003E-08
 cg2d: Sum(rhs),rhsMax =  -2.70782502346122E-04  1.50277377140696E-08
 cg2d: Sum(rhs),rhsMax =  -2.73166891744260E-04  1.48967187750360E-08
 cg2d: Sum(rhs),rhsMax =  -2.75566341330627E-04  1.47671366400337E-08
 cg2d: Sum(rhs),rhsMax =  -2.77981315906605E-04  1.46389692526642E-08
 cg2d: Sum(rhs),rhsMax =  -2.80411943968974E-04  1.45121950536130E-08
 cg2d: Sum(rhs),rhsMax =  -2.82858350372767E-04  1.43867929462342E-08
(PID.TID 0000.0001)      cg2d_init_res =   4.58267889338880E-01
(PID.TID 0000.0001)      cg2d_iters(min,last) =      -1     535
(PID.TID 0000.0001)      cg2d_last_res =   9.82322278585550E-08
(PID.TID 0000.0001) // =======================================================
(PID.TID 0000.0001) // Begin MONITOR dynamic field statistics
(PID.TID 0000.0001) // =======================================================
(PID.TID 0000.0001) %MON time_tsnumber                =                   224
(PID.TID 0000.0001) %MON time_secondsf                =   1.2096000000000E+06
(PID.TID 0000.0001) %MON dynstat_eta_max              =   2.9488029383550E-08
(PID.TID 0000.0001) %MON dynstat_eta_min              =  -4.1342451418838E-08
(PID.TID 0000.0001) %MON dynstat_eta_mean             =   3.9217830199180E-13
(PID.TID 0000.0001) %MON dynstat_eta_sd               =   1.1164551233673E-08
(PID.TID 0000.0001) %MON dynstat_eta_del2             =   9.8481026671345E-13
(PID.TID 0000.0001) %MON dynstat_uvel_max             =   5.8824631936869E-08
(PID.TID 0000.0001) %MON dynstat_uvel_min             =  -8.8733241297618E-08
(PID.TID 0000.0001) %MON dynstat_uvel_mean            =  -5.0865556082846E-13
(PID.TID 0000.0001) %MON dynstat_uvel_sd              =   1.8157901252816E-08
(PID.TID 0000.0001) %MON dynstat_uvel_del2            =   5.4232434672443E-12
(PID.TID 0000.0001) %MON dynstat_vvel_max             =   5.8872304849141E-08
(PID.TID 0000.0001) %MON dynstat_vvel_min             =  -8.3176058579389E-08
(PID.TID 0000.0001) %MON dynstat_vvel_mean            =   1.6237639693753E-13
(PID.TID 0000.0001) %MON dynstat_vvel_sd              =   1.7225059097570E-08
(PID.TID 0000.0001) %MON dynstat_vvel_del2            =   5.6274156480069E-12
(PID.TID 0000.0001) %MON dynstat_wvel_max             =   4.4846283118183E-14
(PID.TID 0000.0001) %MON dynstat_wvel_min             =  -3.2753388508056E-14
(PID.TID 0000.0001) %MON dynstat_wvel_mean            =  -3.3614269772283E-27
(PID.TID 0000.0001) %MON dynstat_wvel_sd              =   1.3824935468733E-14
(PID.TID 0000.0001) %MON dynstat_wvel_del2            =   1.8355241403200E-18
(PID.TID 0000.0001) %MON dynstat_theta_max            =   2.0000000000000E+01
(PID.TID 0000.0001) %MON dynstat_theta_min            =   2.0000000000000E+01
(PID.TID 0000.0001) %MON dynstat_theta_mean           =   2.0000000000000E+01
(PID.TID 0000.0001) %MON dynstat_theta_sd             =   0.0000000000000E+00
(PID.TID 0000.0001) %MON dynstat_theta_del2           =   0.0000000000000E+00
(PID.TID 0000.0001) %MON dynstat_salt_max             =   3.0000000000000E+01
(PID.TID 0000.0001) %MON dynstat_salt_min             =   3.0000000000000E+01
(PID.TID 0000.0001) %MON dynstat_salt_mean            =   3.0000000000000E+01
(PID.TID 0000.0001) %MON dynstat_salt_sd              =   0.0000000000000E+00
(PID.TID 0000.0001) %MON dynstat_salt_del2            =   0.0000000000000E+00
(PID.TID 0000.0001) %MON trAdv_CFL_u_max              =   9.6532283261406E-08
(PID.TID 0000.0001) %MON trAdv_CFL_v_max              =   9.0577878098592E-08
(PID.TID 0000.0001) %MON trAdv_CFL_w_max              =   4.8560360929173E-14
(PID.TID 0000.0001) %MON advcfl_uvel_max              =   9.5831900601427E-08
(PID.TID 0000.0001) %MON advcfl_vvel_max              =   8.9830143265740E-08
(PID.TID 0000.0001) %MON advcfl_wvel_max              =   9.6867971535275E-14
(PID.TID 0000.0001) %MON advcfl_W_hf_max              =   0.0000000000000E+00
(PID.TID 0000.0001) %MON pe_b_mean                    =   1.2227890751945E-19
(PID.TID 0000.0001) %MON ke_max                       =   3.9346978771283E-15
(PID.TID 0000.0001) %MON ke_mean                      =   3.1193282435201E-16
(PID.TID 0000.0001) %MON ke_vol                       =   7.5645000000000E+15
(PID.TID 0000.0001) %MON vort_r_min                   =  -5.6090682210830E-12
(PID.TID 0000.0001) %MON vort_r_max                   =   5.6058134476565E-12
(PID.TID 0000.0001) %MON vort_a_mean                  =   8.2300000000000E-05
(PID.TID 0000.0001) %MON vort_a_sd                    =   7.1297555115621E-06
(PID.TID 0000.0001) %MON vort_p_mean                  =   8.3303658536585E-05
(PID.TID 0000.0001) %MON vort_p_sd                    =   1.7411470262002E-05
(PID.TID 0000.0001) %MON surfExpan_theta_mean         =  -6.7049419370065E-26
(PID.TID 0000.0001) %MON surfExpan_salt_mean          =  -1.0070737899987E-25
(PID.TID 0000.0001) // =======================================================
(PID.TID 0000.0001) // End MONITOR dynamic field statistics
(PID.TID 0000.0001) // =======================================================
 cg2d: Sum(rhs),rhsMax =  -2.85320664133571E-04  1.42627422902825E-08
 cg2d: Sum(rhs),rhsMax =  -2.87799009390632E-04  1.41400228895425E-08
 cg2d: Sum(rhs),rhsMax =  -2.90293518484965E-04  1.40186149799961E-08
 cg2d: Sum(rhs),rhsMax =  -2.92804318520486E-04  1.38984992183282E-08
 cg2d: Sum(rhs),rhsMax =  -2.95331537270313E-04  1.37796566708449E-08
 cg2d: Sum(rhs),rhsMax =  -2.97875307639449E-04  1.36620688026734E-08
 cg2d: Sum(rhs),rhsMax =  -3.00435752440040E-04  1.35457174672941E-08
 cg2d: Sum(rhs),rhsMax =  -3.03012772153978E-04  1.34305849004975E-08
 cg2d: Sum(rhs),rhsMax =  -3.05606734211089E-04  1.33166536893392E-08
 cg2d: Sum(rhs),rhsMax =  -3.08217767594264E-04  1.32039068056381E-08
 cg2d: Sum(rhs),rhsMax =  -3.10846005423835E-04  1.30923275527698E-08
 cg2d: Sum(rhs),rhsMax =  -3.13491576479219E-04  1.29818995798095E-08
 cg2d: Sum(rhs),rhsMax =  -3.16154616329182E-04  1.28726068668265E-08
 cg2d: Sum(rhs),rhsMax =  -3.18825077484623E-04  1.27648409713712E-08
 cg2d: Sum(rhs),rhsMax =  -3.21493247315000E-04  1.26589541542765E-08
 cg2d: Sum(rhs),rhsMax =  -3.24178671460269E-04  1.25541404566966E-08
(PID.TID 0000.0001)      cg2d_init_res =   4.30545498416853E-01
(PID.TID 0000.0001)      cg2d_iters(min,last) =      -1     536
(PID.TID 0000.0001)      cg2d_last_res =   9.87855589157841E-08
(PID.TID 0000.0001) // =======================================================
(PID.TID 0000.0001) // Begin MONITOR dynamic field statistics
(PID.TID 0000.0001) // =======================================================
(PID.TID 0000.0001) %MON time_tsnumber                =                   240
(PID.TID 0000.0001) %MON time_secondsf                =   1.2960000000000E+06
(PID.TID 0000.0001) %MON dynstat_eta_max              =   2.7491396977929E-08
(PID.TID 0000.0001) %MON dynstat_eta_min              =  -3.8101150953511E-08
(PID.TID 0000.0001) %MON dynstat_eta_mean             =   3.9221158261756E-13
(PID.TID 0000.0001) %MON dynstat_eta_sd               =   1.0877074234694E-08
(PID.TID 0000.0001) %MON dynstat_eta_del2             =   8.5904274390700E-13
(PID.TID 0000.0001) %MON dynstat_uvel_max             =   5.2919357729791E-08
(PID.TID 0000.0001) %MON dynstat_uvel_min             =  -7.9577498752876E-08
(PID.TID 0000.0001) %MON dynstat_uvel_mean            =  -4.3332415530212E-13
(PID.TID 0000.0001) %MON dynstat_uvel_sd              =   1.6645570948718E-08
(PID.TID 0000.0001) %MON dynstat_uvel_del2            =   4.6102839908677E-12
(PID.TID 0000.0001) %MON dynstat_vvel_max             =   5.5465624856276E-08
(PID.TID 0000.0001) %MON dynstat_vvel_min             =  -7.2822554189121E-08
(PID.TID 0000.0001) %MON dynstat_vvel_mean            =   1.3923681469369E-13
(PID.TID 0000.0001) %MON dynstat_vvel_sd              =   1.5665277986842E-08
(PID.TID 0000.0001) %MON dynstat_vvel_del2            =   4.7202512662386E-12
(PID.TID 0000.0001) %MON dynstat_wvel_max             =   4.2821785253278E-14
(PID.TID 0000.0001) %MON dynstat_wvel_min             =  -3.2365064800421E-14
(PID.TID 0000.0001) %MON dynstat_wvel_mean            =  -3.8532710036957E-28
(PID.TID 0000.0001) %MON dynstat_wvel_sd              =   1.3412161769331E-14
(PID.TID 0000.0001) %MON dynstat_wvel_del2            =   1.5037131046172E-18
(PID.TID 0000.0001) %MON dynstat_theta_max            =   2.0000000000000E+01
(PID.TID 0000.0001) %MON dynstat_theta_min            =   2.0000000000000E+01
(PID.TID 0000.0001) %MON dynstat_theta_mean           =   2.0000000000000E+01
(PID.TID 0000.0001) %MON dynstat_theta_sd             =   0.0000000000000E+00
(PID.TID 0000.0001) %MON dynstat_theta_del2           =   0.0000000000000E+00
(PID.TID 0000.0001) %MON dynstat_salt_max             =   3.0000000000000E+01
(PID.TID 0000.0001) %MON dynstat_salt_min             =   3.0000000000000E+01
(PID.TID 0000.0001) %MON dynstat_salt_mean            =   3.0000000000000E+01
(PID.TID 0000.0001) %MON dynstat_salt_sd              =   0.0000000000000E+00
(PID.TID 0000.0001) %MON dynstat_salt_del2            =   0.0000000000000E+00
(PID.TID 0000.0001) %MON trAdv_CFL_u_max              =   8.6516630740628E-08
(PID.TID 0000.0001) %MON trAdv_CFL_v_max              =   7.9305709356283E-08
(PID.TID 0000.0001) %MON trAdv_CFL_w_max              =   4.6408397098840E-14
(PID.TID 0000.0001) %MON advcfl_uvel_max              =   8.5943698653106E-08
(PID.TID 0000.0001) %MON advcfl_vvel_max              =   7.8648358524250E-08
(PID.TID 0000.0001) %MON advcfl_wvel_max              =   9.2495056147079E-14
(PID.TID 0000.0001) %MON advcfl_W_hf_max              =   0.0000000000000E+00
(PID.TID 0000.0001) %MON pe_b_mean                    =   1.1606283992372E-19
(PID.TID 0000.0001) %MON ke_max                       =   3.1601329257143E-15
(PID.TID 0000.0001) %MON ke_mean                      =   2.6017604038851E-16
(PID.TID 0000.0001) %MON ke_vol                       =   7.5645000000000E+15
(PID.TID 0000.0001) %MON vort_r_min                   =  -4.9146366130901E-12
(PID.TID 0000.0001) %MON vort_r_max                   =   5.0253179789179E-12
(PID.TID 0000.0001) %MON vort_a_mean                  =   8.2300000000000E-05
(PID.TID 0000.0001) %MON vort_a_sd                    =   7.1297555115594E-06
(PID.TID 0000.0001) %MON vort_p_mean                  =   8.3303658536586E-05
(PID.TID 0000.0001) %MON vort_p_sd                    =   1.7411470258004E-05
(PID.TID 0000.0001) %MON surfExpan_theta_mean         =  -7.6306577449268E-27
(PID.TID 0000.0001) %MON surfExpan_salt_mean          =  -1.1463365097582E-26
(PID.TID 0000.0001) // =======================================================
(PID.TID 0000.0001) // End MONITOR dynamic field statistics
(PID.TID 0000.0001) // =======================================================
 cg2d: Sum(rhs),rhsMax =  -3.26881484298921E-04  1.24503853236628E-08
 cg2d: Sum(rhs),rhsMax =  -3.29601806599041E-04  1.23476744872269E-08
 cg2d: Sum(rhs),rhsMax =  -3.32339766107796E-04  1.22459939591649E-08
 cg2d: Sum(rhs),rhsMax =  -3.35095488443130E-04  1.21453300238899E-08
 cg2d: Sum(rhs),rhsMax =  -3.37869099477749E-04  1.20456692315624E-08
 cg2d: Sum(rhs),rhsMax =  -3.40660723049727E-04  1.19469983914073E-08
 cg2d: Sum(rhs),rhsMax =  -3.43470487823204E-04  1.18493045652039E-08
 cg2d: Sum(rhs),rhsMax =  -3.46298518566413E-04  1.17525750609747E-08
 cg2d: Sum(rhs),rhsMax =  -3.49144947109069E-04  1.16567974268452E-08
 cg2d: Sum(rhs),rhsMax =  -3.52009896380811E-04  1.15619594450759E-08
 cg2d: Sum(rhs),rhsMax =  -3.54893495331801E-04  1.14680491262642E-08
 cg2d: Sum(rhs),rhsMax =  -3.57795868546273E-04  1.13750547037058E-08
 cg2d: Sum(rhs),rhsMax =  -3.60717147886523E-04  1.12829646279178E-08
 cg2d: Sum(rhs),rhsMax =  -3.63657455451132E-04  1.11917675613107E-08
 cg2d: Sum(rhs),rhsMax =  -3.66616925302003E-04  1.11014523730078E-08
 cg2d: Sum(rhs),rhsMax =  -3.69595817099033E-04  1.10120081294951E-08
(PID.TID 0000.0001)      cg2d_init_res =   4.07817318551110E-01
(PID.TID 0000.0001)      cg2d_iters(min,last) =      -1     535
(PID.TID 0000.0001)      cg2d_last_res =   9.95402377506262E-08
(PID.TID 0000.0001) // =======================================================
(PID.TID 0000.0001) // Begin MONITOR dynamic field statistics
(PID.TID 0000.0001) // =======================================================
(PID.TID 0000.0001) %MON time_tsnumber                =                   256
(PID.TID 0000.0001) %MON time_secondsf                =   1.3824000000000E+06
(PID.TID 0000.0001) %MON dynstat_eta_max              =   2.6246500482288E-08
(PID.TID 0000.0001) %MON dynstat_eta_min              =  -3.4896604784044E-08
(PID.TID 0000.0001) %MON dynstat_eta_mean             =   3.9223116304108E-13
(PID.TID 0000.0001) %MON dynstat_eta_sd               =   1.0571866382476E-08
(PID.TID 0000.0001) %MON dynstat_eta_del2             =   7.5589445769695E-13
(PID.TID 0000.0001) %MON dynstat_uvel_max             =   4.7676393378871E-08
(PID.TID 0000.0001) %MON dynstat_uvel_min             =  -7.1529513089232E-08
(PID.TID 0000.0001) %MON dynstat_uvel_mean            =  -3.3883299198576E-13
(PID.TID 0000.0001) %MON dynstat_uvel_sd              =   1.5356149653660E-08
(PID.TID 0000.0001) %MON dynstat_uvel_del2            =   3.9581062325001E-12
(PID.TID 0000.0001) %MON dynstat_vvel_max             =   5.2450554312658E-08
(PID.TID 0000.0001) %MON dynstat_vvel_min             =  -6.4314692166606E-08
(PID.TID 0000.0001) %MON dynstat_vvel_mean            =   1.1647581135007E-13
(PID.TID 0000.0001) %MON dynstat_vvel_sd              =   1.4383332693044E-08
(PID.TID 0000.0001) %MON dynstat_vvel_del2            =   4.0042854946827E-12
(PID.TID 0000.0001) %MON dynstat_wvel_max             =   4.0044464260092E-14
(PID.TID 0000.0001) %MON dynstat_wvel_min             =  -3.1201598684749E-14
(PID.TID 0000.0001) %MON dynstat_wvel_mean            =   1.3270426766099E-27
(PID.TID 0000.0001) %MON dynstat_wvel_sd              =   1.3063292362289E-14
(PID.TID 0000.0001) %MON dynstat_wvel_del2            =   1.2481665479045E-18
(PID.TID 0000.0001) %MON dynstat_theta_max            =   2.0000000000000E+01
(PID.TID 0000.0001) %MON dynstat_theta_min            =   2.0000000000000E+01
(PID.TID 0000.0001) %MON dynstat_theta_mean           =   2.0000000000000E+01
(PID.TID 0000.0001) %MON dynstat_theta_sd             =   0.0000000000000E+00
(PID.TID 0000.0001) %MON dynstat_theta_del2           =   0.0000000000000E+00
(PID.TID 0000.0001) %MON dynstat_salt_max             =   3.0000000000000E+01
(PID.TID 0000.0001) %MON dynstat_salt_min             =   3.0000000000000E+01
(PID.TID 0000.0001) %MON dynstat_salt_mean            =   3.0000000000000E+01
(PID.TID 0000.0001) %MON dynstat_salt_sd              =   0.0000000000000E+00
(PID.TID 0000.0001) %MON dynstat_salt_del2            =   0.0000000000000E+00
(PID.TID 0000.0001) %MON trAdv_CFL_u_max              =   7.7769594866218E-08
(PID.TID 0000.0001) %MON trAdv_CFL_v_max              =   6.9995209318776E-08
(PID.TID 0000.0001) %MON trAdv_CFL_w_max              =   4.3449674101037E-14
(PID.TID 0000.0001) %MON advcfl_uvel_max              =   7.7251874136370E-08
(PID.TID 0000.0001) %MON advcfl_vvel_max              =   6.9459867539934E-08
(PID.TID 0000.0001) %MON advcfl_wvel_max              =   8.6496042801798E-14
(PID.TID 0000.0001) %MON advcfl_W_hf_max              =   0.0000000000000E+00
(PID.TID 0000.0001) %MON pe_b_mean                    =   1.0964083614248E-19
(PID.TID 0000.0001) %MON ke_max                       =   2.5577438760894E-15
(PID.TID 0000.0001) %MON ke_mean                      =   2.2044601617851E-16
(PID.TID 0000.0001) %MON ke_vol                       =   7.5645000000000E+15
(PID.TID 0000.0001) %MON vort_r_min                   =  -4.3216243780060E-12
(PID.TID 0000.0001) %MON vort_r_max                   =   4.4941685280152E-12
(PID.TID 0000.0001) %MON vort_a_mean                  =   8.2300000000001E-05
(PID.TID 0000.0001) %MON vort_a_sd                    =   7.1297555115510E-06
(PID.TID 0000.0001) %MON vort_p_mean                  =   8.3303658536586E-05
(PID.TID 0000.0001) %MON vort_p_sd                    =   1.7411470254457E-05
(PID.TID 0000.0001) %MON surfExpan_theta_mean         =   2.6878345767445E-26
(PID.TID 0000.0001) %MON surfExpan_salt_mean          =   4.0155092567226E-26
(PID.TID 0000.0001) // =======================================================
(PID.TID 0000.0001) // End MONITOR dynamic field statistics
(PID.TID 0000.0001) // =======================================================
 cg2d: Sum(rhs),rhsMax =  -3.72594120468507E-04  1.09234241113314E-08
 cg2d: Sum(rhs),rhsMax =  -3.75611967054912E-04  1.08356897652830E-08
 cg2d: Sum(rhs),rhsMax =  -3.78649486046832E-04  1.07487947429181E-08
 cg2d: Sum(rhs),rhsMax =  -3.81706798420604E-04  1.06627288736170E-08
 cg2d: Sum(rhs),rhsMax =  -3.84784042057397E-04  1.05774821658601E-08
 cg2d: Sum(rhs),rhsMax =  -3.87881337354157E-04  1.04930448023007E-08
 cg2d: Sum(rhs),rhsMax =  -3.90998822680039E-04  1.04094071357193E-08
 cg2d: Sum(rhs),rhsMax =  -3.94136735102159E-04  1.03265596779904E-08
 cg2d: Sum(rhs),rhsMax =  -3.97295085724593E-04  1.02444931250319E-08
 cg2d: Sum(rhs),rhsMax =  -4.00474007374921E-04  1.01631983074554E-08
 cg2d: Sum(rhs),rhsMax =  -4.03673626098610E-04  1.00826662196692E-08
 cg2d: Sum(rhs),rhsMax =  -4.06894073563169E-04  1.00028880068397E-08
 cg2d: Sum(rhs),rhsMax =  -4.10135477692029E-04  9.92385496139563E-09
 cg2d: Sum(rhs),rhsMax =  -4.13397967098372E-04  9.84555851990705E-09
 cg2d: Sum(rhs),rhsMax =  -4.16681771618351E-04  9.76799026001700E-09
 cg2d: Sum(rhs),rhsMax =  -4.19986917862128E-04  9.69114189712304E-09
(PID.TID 0000.0001)      cg2d_init_res =   3.89566610961206E-01
(PID.TID 0000.0001)      cg2d_iters(min,last) =      -1     533
(PID.TID 0000.0001)      cg2d_last_res =   9.86081004284678E-08
(PID.TID 0000.0001) // =======================================================
(PID.TID 0000.0001) // Begin MONITOR dynamic field statistics
(PID.TID 0000.0001) // =======================================================
(PID.TID 0000.0001) %MON time_tsnumber                =                   272
(PID.TID 0000.0001) %MON time_secondsf                =   1.4688000000000E+06
(PID.TID 0000.0001) %MON dynstat_eta_max              =   2.6207022719453E-08
(PID.TID 0000.0001) %MON dynstat_eta_min              =  -3.1753266492052E-08
(PID.TID 0000.0001) %MON dynstat_eta_mean             =   3.9224641643000E-13
(PID.TID 0000.0001) %MON dynstat_eta_sd               =   1.0246304155341E-08
(PID.TID 0000.0001) %MON dynstat_eta_del2             =   6.7040072759000E-13
(PID.TID 0000.0001) %MON dynstat_uvel_max             =   4.3024582982575E-08
(PID.TID 0000.0001) %MON dynstat_uvel_min             =  -6.4328128800492E-08
(PID.TID 0000.0001) %MON dynstat_uvel_mean            =  -2.3092900330312E-13
(PID.TID 0000.0001) %MON dynstat_uvel_sd              =   1.4245761715461E-08
(PID.TID 0000.0001) %MON dynstat_uvel_del2            =   3.4269915212639E-12
(PID.TID 0000.0001) %MON dynstat_vvel_max             =   4.9971846761493E-08
(PID.TID 0000.0001) %MON dynstat_vvel_min             =  -5.6864477137769E-08
(PID.TID 0000.0001) %MON dynstat_vvel_mean            =   9.3738099362145E-14
(PID.TID 0000.0001) %MON dynstat_vvel_sd              =   1.3321833608513E-08
(PID.TID 0000.0001) %MON dynstat_vvel_del2            =   3.4320679036602E-12
(PID.TID 0000.0001) %MON dynstat_wvel_max             =   3.6802258540636E-14
(PID.TID 0000.0001) %MON dynstat_wvel_min             =  -3.0288240635556E-14
(PID.TID 0000.0001) %MON dynstat_wvel_mean            =  -2.8476322605107E-27
(PID.TID 0000.0001) %MON dynstat_wvel_sd              =   1.2772767059696E-14
(PID.TID 0000.0001) %MON dynstat_wvel_del2            =   1.0481957176081E-18
(PID.TID 0000.0001) %MON dynstat_theta_max            =   2.0000000000000E+01
(PID.TID 0000.0001) %MON dynstat_theta_min            =   2.0000000000000E+01
(PID.TID 0000.0001) %MON dynstat_theta_mean           =   2.0000000000000E+01
(PID.TID 0000.0001) %MON dynstat_theta_sd             =   0.0000000000000E+00
(PID.TID 0000.0001) %MON dynstat_theta_del2           =   0.0000000000000E+00
(PID.TID 0000.0001) %MON dynstat_salt_max             =   3.0000000000000E+01
(PID.TID 0000.0001) %MON dynstat_salt_min             =   3.0000000000000E+01
(PID.TID 0000.0001) %MON dynstat_salt_mean            =   3.0000000000000E+01
(PID.TID 0000.0001) %MON dynstat_salt_sd              =   0.0000000000000E+00
(PID.TID 0000.0001) %MON dynstat_salt_del2            =   0.0000000000000E+00
(PID.TID 0000.0001) %MON trAdv_CFL_u_max              =   6.9934263777148E-08
(PID.TID 0000.0001) %MON trAdv_CFL_v_max              =   6.1888682949098E-08
(PID.TID 0000.0001) %MON trAdv_CFL_w_max              =   3.9988062097596E-14
(PID.TID 0000.0001) %MON advcfl_uvel_max              =   6.9474379104531E-08
(PID.TID 0000.0001) %MON advcfl_vvel_max              =   6.1413635308790E-08
(PID.TID 0000.0001) %MON advcfl_wvel_max              =   7.9492878447773E-14
(PID.TID 0000.0001) %MON advcfl_W_hf_max              =   0.0000000000000E+00
(PID.TID 0000.0001) %MON pe_b_mean                    =   1.0299200076667E-19
(PID.TID 0000.0001) %MON ke_max                       =   2.0685491619081E-15
(PID.TID 0000.0001) %MON ke_mean                      =   1.8943329169540E-16
(PID.TID 0000.0001) %MON ke_vol                       =   7.5645000000000E+15
(PID.TID 0000.0001) %MON vort_r_min                   =  -3.8112601874205E-12
(PID.TID 0000.0001) %MON vort_r_max                   =   4.0458734454480E-12
(PID.TID 0000.0001) %MON vort_a_mean                  =   8.2300000000000E-05
(PID.TID 0000.0001) %MON vort_a_sd                    =   7.1297555115714E-06
(PID.TID 0000.0001) %MON vort_p_mean                  =   8.3303658536585E-05
(PID.TID 0000.0001) %MON vort_p_sd                    =   1.7411470251339E-05
(PID.TID 0000.0001) %MON surfExpan_theta_mean         =  -5.6793016595769E-26
(PID.TID 0000.0001) %MON surfExpan_salt_mean          =  -8.5247715928358E-26
(PID.TID 0000.0001) // =======================================================
(PID.TID 0000.0001) // End MONITOR dynamic field statistics
(PID.TID 0000.0001) // =======================================================
 cg2d: Sum(rhs),rhsMax =  -4.23313537242391E-04  9.61500527792685E-09
 cg2d: Sum(rhs),rhsMax =  -4.26661851693722E-04  9.53957237483088E-09
 cg2d: Sum(rhs),rhsMax =  -4.30031897104521E-04  9.46483531500540E-09
 cg2d: Sum(rhs),rhsMax =  -4.33423795432812E-04  9.39078632413726E-09
 cg2d: Sum(rhs),rhsMax =  -4.36837675310213E-04  9.31741775834526E-09
 cg2d: Sum(rhs),rhsMax =  -4.40273760390043E-04  9.24472210017641E-09
 cg2d: Sum(rhs),rhsMax =  -4.43732089043657E-04  9.17269192973233E-09
 cg2d: Sum(rhs),rhsMax =  -4.47212783107005E-04  9.10131996306437E-09
 cg2d: Sum(rhs),rhsMax =  -4.50715975381758E-04  9.03059901905592E-09
 cg2d: Sum(rhs),rhsMax =  -4.54241794396398E-04  8.96052202760428E-09
 cg2d: Sum(rhs),rhsMax =  -4.57790452382048E-04  8.89108202074024E-09
 cg2d: Sum(rhs),rhsMax =  -4.61361989272257E-04  8.82227214700559E-09
 cg2d: Sum(rhs),rhsMax =  -4.64956535342459E-04  8.75408564837929E-09
 cg2d: Sum(rhs),rhsMax =  -4.68574218750316E-04  8.68651586738787E-09
 cg2d: Sum(rhs),rhsMax =  -4.72215167775206E-04  8.61955624558030E-09
 cg2d: Sum(rhs),rhsMax =  -4.75879506876499E-04  8.55320032064328E-09
(PID.TID 0000.0001)      cg2d_init_res =   3.74959125415580E-01
(PID.TID 0000.0001)      cg2d_iters(min,last) =      -1     530
(PID.TID 0000.0001)      cg2d_last_res =   9.62520166661033E-08
(PID.TID 0000.0001) // =======================================================
(PID.TID 0000.0001) // Begin MONITOR dynamic field statistics
(PID.TID 0000.0001) // =======================================================
(PID.TID 0000.0001) %MON time_tsnumber                =                   288
(PID.TID 0000.0001) %MON time_secondsf                =   1.5552000000000E+06
(PID.TID 0000.0001) %MON dynstat_eta_max              =   2.5762432731021E-08
(PID.TID 0000.0001) %MON dynstat_eta_min              =  -3.0791866926952E-08
(PID.TID 0000.0001) %MON dynstat_eta_mean             =   3.9225973347383E-13
(PID.TID 0000.0001) %MON dynstat_eta_sd               =   9.9015009161014E-09
(PID.TID 0000.0001) %MON dynstat_eta_del2             =   5.9889863271998E-13
(PID.TID 0000.0001) %MON dynstat_uvel_max             =   4.0239958820967E-08
(PID.TID 0000.0001) %MON dynstat_uvel_min             =  -5.7879024647429E-08
(PID.TID 0000.0001) %MON dynstat_uvel_mean            =  -1.1583336727234E-13
(PID.TID 0000.0001) %MON dynstat_uvel_sd              =   1.3282069097638E-08
(PID.TID 0000.0001) %MON dynstat_uvel_del2            =   2.9890158312650E-12
(PID.TID 0000.0001) %MON dynstat_vvel_max             =   4.7711533769366E-08
(PID.TID 0000.0001) %MON dynstat_vvel_min             =  -5.0267831678157E-08
(PID.TID 0000.0001) %MON dynstat_vvel_mean            =   7.0839817466637E-14
(PID.TID 0000.0001) %MON dynstat_vvel_sd              =   1.2435509974794E-08
(PID.TID 0000.0001) %MON dynstat_vvel_del2            =   2.9694051245540E-12
(PID.TID 0000.0001) %MON dynstat_wvel_max             =   3.5039076062837E-14
(PID.TID 0000.0001) %MON dynstat_wvel_min             =  -3.0450337005217E-14
(PID.TID 0000.0001) %MON dynstat_wvel_mean            =  -5.2650521243509E-27
(PID.TID 0000.0001) %MON dynstat_wvel_sd              =   1.2534183741696E-14
(PID.TID 0000.0001) %MON dynstat_wvel_del2            =   8.8932076220452E-19
(PID.TID 0000.0001) %MON dynstat_theta_max            =   2.0000000000000E+01
(PID.TID 0000.0001) %MON dynstat_theta_min            =   2.0000000000000E+01
(PID.TID 0000.0001) %MON dynstat_theta_mean           =   2.0000000000000E+01
(PID.TID 0000.0001) %MON dynstat_theta_sd             =   0.0000000000000E+00
(PID.TID 0000.0001) %MON dynstat_theta_del2           =   0.0000000000000E+00
(PID.TID 0000.0001) %MON dynstat_salt_max             =   3.0000000000000E+01
(PID.TID 0000.0001) %MON dynstat_salt_min             =   3.0000000000000E+01
(PID.TID 0000.0001) %MON dynstat_salt_mean            =   3.0000000000000E+01
(PID.TID 0000.0001) %MON dynstat_salt_sd              =   0.0000000000000E+00
(PID.TID 0000.0001) %MON dynstat_salt_del2            =   0.0000000000000E+00
(PID.TID 0000.0001) %MON trAdv_CFL_u_max              =   6.2923610544670E-08
(PID.TID 0000.0001) %MON trAdv_CFL_v_max              =   5.4709044567581E-08
(PID.TID 0000.0001) %MON trAdv_CFL_w_max              =   3.7938512607871E-14
(PID.TID 0000.0001) %MON advcfl_uvel_max              =   6.2509346619223E-08
(PID.TID 0000.0001) %MON advcfl_vvel_max              =   5.4289258212409E-08
(PID.TID 0000.0001) %MON advcfl_wvel_max              =   7.5684404295728E-14
(PID.TID 0000.0001) %MON advcfl_W_hf_max              =   0.0000000000000E+00
(PID.TID 0000.0001) %MON pe_b_mean                    =   9.6176965855062E-20
(PID.TID 0000.0001) %MON ke_max                       =   1.6721811474596E-15
(PID.TID 0000.0001) %MON ke_mean                      =   1.6485475737233E-16
(PID.TID 0000.0001) %MON ke_vol                       =   7.5645000000000E+15
(PID.TID 0000.0001) %MON vort_r_min                   =  -3.3695173202150E-12
(PID.TID 0000.0001) %MON vort_r_max                   =   3.6487222365537E-12
(PID.TID 0000.0001) %MON vort_a_mean                  =   8.2300000000000E-05
(PID.TID 0000.0001) %MON vort_a_sd                    =   7.1297555115652E-06
(PID.TID 0000.0001) %MON vort_p_mean                  =   8.3303658536585E-05
(PID.TID 0000.0001) %MON vort_p_sd                    =   1.7411470248587E-05
(PID.TID 0000.0001) %MON surfExpan_theta_mean         =  -1.0502005489309E-25
(PID.TID 0000.0001) %MON surfExpan_salt_mean          =  -1.5754348347694E-25
(PID.TID 0000.0001) // =======================================================
(PID.TID 0000.0001) // End MONITOR dynamic field statistics
(PID.TID 0000.0001) // =======================================================
 cg2d: Sum(rhs),rhsMax =  -4.79567367203858E-04  8.48744172401432E-09
 cg2d: Sum(rhs),rhsMax =  -4.83278872461296E-04  8.42227417894716E-09
 cg2d: Sum(rhs),rhsMax =  -4.87014156716098E-04  8.35769149853389E-09
 cg2d: Sum(rhs),rhsMax =  -4.90773341903048E-04  8.29368758380370E-09
 cg2d: Sum(rhs),rhsMax =  -4.94556633549689E-04  8.23025642671207E-09
 cg2d: Sum(rhs),rhsMax =  -4.98364082209291E-04  8.16739208739278E-09
 cg2d: Sum(rhs),rhsMax =  -5.02195812017727E-04  8.10508872729578E-09
 cg2d: Sum(rhs),rhsMax =  -5.06051953234891E-04  8.04334057965509E-09
 cg2d: Sum(rhs),rhsMax =  -5.09932627270764E-04  7.98214195843199E-09
 cg2d: Sum(rhs),rhsMax =  -5.13789613639549E-04  7.92223269621752E-09
 cg2d: Sum(rhs),rhsMax =  -5.17246059155499E-04  7.86930499429719E-09
 cg2d: Sum(rhs),rhsMax =  -5.20724452043310E-04  7.81675021659169E-09
 cg2d: Sum(rhs),rhsMax =  -5.24224868005961E-04  7.76456644516636E-09
 cg2d: Sum(rhs),rhsMax =  -5.27747381617647E-04  7.71275174169450E-09
 cg2d: Sum(rhs),rhsMax =  -5.31292073956175E-04  7.66130414874105E-09
 cg2d: Sum(rhs),rhsMax =  -5.34859017735578E-04  7.61022169101118E-09
(PID.TID 0000.0001)      cg2d_init_res =   3.61370364325441E-01
(PID.TID 0000.0001)      cg2d_iters(min,last) =      -1     529
(PID.TID 0000.0001)      cg2d_last_res =   9.72284316495755E-08
(PID.TID 0000.0001) // =======================================================
(PID.TID 0000.0001) // Begin MONITOR dynamic field statistics
(PID.TID 0000.0001) // =======================================================
(PID.TID 0000.0001) %MON time_tsnumber                =                   304
(PID.TID 0000.0001) %MON time_secondsf                =   1.6416000000000E+06
(PID.TID 0000.0001) %MON dynstat_eta_max              =   2.4842507042467E-08
(PID.TID 0000.0001) %MON dynstat_eta_min              =  -3.0271165739242E-08
(PID.TID 0000.0001) %MON dynstat_eta_mean             =   3.9226946918904E-13
(PID.TID 0000.0001) %MON dynstat_eta_sd               =   9.5418811902724E-09
(PID.TID 0000.0001) %MON dynstat_eta_del2             =   5.3862737657479E-13
(PID.TID 0000.0001) %MON dynstat_uvel_max             =   3.7886324629043E-08
(PID.TID 0000.0001) %MON dynstat_uvel_min             =  -5.2074643892421E-08
(PID.TID 0000.0001) %MON dynstat_uvel_mean            =   7.2251091271736E-17
(PID.TID 0000.0001) %MON dynstat_uvel_sd              =   1.2440908012964E-08
(PID.TID 0000.0001) %MON dynstat_uvel_del2            =   2.6240373772520E-12
(PID.TID 0000.0001) %MON dynstat_vvel_max             =   4.5547126424324E-08
(PID.TID 0000.0001) %MON dynstat_vvel_min             =  -4.4450241046098E-08
(PID.TID 0000.0001) %MON dynstat_vvel_mean            =   4.7743253277265E-14
(PID.TID 0000.0001) %MON dynstat_vvel_sd              =   1.1688172859401E-08
(PID.TID 0000.0001) %MON dynstat_vvel_del2            =   2.5911972930164E-12
(PID.TID 0000.0001) %MON dynstat_wvel_max             =   3.3409451076771E-14
(PID.TID 0000.0001) %MON dynstat_wvel_min             =  -2.9464327711004E-14
(PID.TID 0000.0001) %MON dynstat_wvel_mean            =  -4.1934142562243E-27
(PID.TID 0000.0001) %MON dynstat_wvel_sd              =   1.2337551852975E-14
(PID.TID 0000.0001) %MON dynstat_wvel_del2            =   7.6161507789278E-19
(PID.TID 0000.0001) %MON dynstat_theta_max            =   2.0000000000000E+01
(PID.TID 0000.0001) %MON dynstat_theta_min            =   2.0000000000000E+01
(PID.TID 0000.0001) %MON dynstat_theta_mean           =   2.0000000000000E+01
(PID.TID 0000.0001) %MON dynstat_theta_sd             =   0.0000000000000E+00
(PID.TID 0000.0001) %MON dynstat_theta_del2           =   0.0000000000000E+00
(PID.TID 0000.0001) %MON dynstat_salt_max             =   3.0000000000000E+01
(PID.TID 0000.0001) %MON dynstat_salt_min             =   3.0000000000000E+01
(PID.TID 0000.0001) %MON dynstat_salt_mean            =   3.0000000000000E+01
(PID.TID 0000.0001) %MON dynstat_salt_sd              =   0.0000000000000E+00
(PID.TID 0000.0001) %MON dynstat_salt_del2            =   0.0000000000000E+00
(PID.TID 0000.0001) %MON trAdv_CFL_u_max              =   5.6613182300575E-08
(PID.TID 0000.0001) %MON trAdv_CFL_v_max              =   4.9334870325568E-08
(PID.TID 0000.0001) %MON trAdv_CFL_w_max              =   3.6204473711399E-14
(PID.TID 0000.0001) %MON advcfl_uvel_max              =   5.6240615403814E-08
(PID.TID 0000.0001) %MON advcfl_vvel_max              =   4.9190896538270E-08
(PID.TID 0000.0001) %MON advcfl_wvel_max              =   7.2164414325826E-14
(PID.TID 0000.0001) %MON advcfl_W_hf_max              =   0.0000000000000E+00
(PID.TID 0000.0001) %MON pe_b_mean                    =   8.9317594363890E-20
(PID.TID 0000.0001) %MON ke_max                       =   1.3516224586362E-15
(PID.TID 0000.0001) %MON ke_mean                      =   1.4510253325251E-16
(PID.TID 0000.0001) %MON ke_vol                       =   7.5645000000000E+15
(PID.TID 0000.0001) %MON vort_r_min                   =  -2.9856054133195E-12
(PID.TID 0000.0001) %MON vort_r_max                   =   3.2910660127671E-12
(PID.TID 0000.0001) %MON vort_a_mean                  =   8.2300000000000E-05
(PID.TID 0000.0001) %MON vort_a_sd                    =   7.1297555115613E-06
(PID.TID 0000.0001) %MON vort_p_mean                  =   8.3303658536585E-05
(PID.TID 0000.0001) %MON vort_p_sd                    =   1.7411470246165E-05
(PID.TID 0000.0001) %MON surfExpan_theta_mean         =  -8.3724931080507E-26
(PID.TID 0000.0001) %MON surfExpan_salt_mean          =  -1.2568804847820E-25
(PID.TID 0000.0001) // =======================================================
(PID.TID 0000.0001) // End MONITOR dynamic field statistics
(PID.TID 0000.0001) // =======================================================
 cg2d: Sum(rhs),rhsMax =  -5.38448285330187E-04  7.55950237655207E-09
 cg2d: Sum(rhs),rhsMax =  -5.42014693359889E-04  7.50977136689282E-09
 cg2d: Sum(rhs),rhsMax =  -5.45353279737489E-04  7.46380704556350E-09
 cg2d: Sum(rhs),rhsMax =  -5.48711681534326E-04  7.41813403709475E-09
 cg2d: Sum(rhs),rhsMax =  -5.52089966004457E-04  7.37275110841543E-09
 cg2d: Sum(rhs),rhsMax =  -5.55488184220833E-04  7.32765700703184E-09
 cg2d: Sum(rhs),rhsMax =  -5.58906409555326E-04  7.28285046202166E-09
 cg2d: Sum(rhs),rhsMax =  -5.62344702781390E-04  7.23833018499562E-09
 cg2d: Sum(rhs),rhsMax =  -5.65803128813899E-04  7.19409487104101E-09
 cg2d: Sum(rhs),rhsMax =  -5.69281757755765E-04  7.15014319961454E-09
 cg2d: Sum(rhs),rhsMax =  -5.72780651021816E-04  7.10647383542693E-09
 cg2d: Sum(rhs),rhsMax =  -5.76299877720673E-04  7.06308542928647E-09
 cg2d: Sum(rhs),rhsMax =  -5.79839499816637E-04  7.01997661891660E-09
 cg2d: Sum(rhs),rhsMax =  -5.83399584810588E-04  6.97714602975021E-09
 cg2d: Sum(rhs),rhsMax =  -5.86980203829974E-04  6.93459227569390E-09
 cg2d: Sum(rhs),rhsMax =  -5.90581424505797E-04  6.89231395987693E-09
(PID.TID 0000.0001)      cg2d_init_res =   3.45107000419315E-01
(PID.TID 0000.0001)      cg2d_iters(min,last) =      -1     529
(PID.TID 0000.0001)      cg2d_last_res =   9.69424671065519E-08
(PID.TID 0000.0001) // =======================================================
(PID.TID 0000.0001) // Begin MONITOR dynamic field statistics
(PID.TID 0000.0001) // =======================================================
(PID.TID 0000.0001) %MON time_tsnumber                =                   320
(PID.TID 0000.0001) %MON time_secondsf                =   1.7280000000000E+06
(PID.TID 0000.0001) %MON dynstat_eta_max              =   2.4651007233590E-08
(PID.TID 0000.0001) %MON dynstat_eta_min              =  -2.9670661691704E-08
(PID.TID 0000.0001) %MON dynstat_eta_mean             =   3.9227675844824E-13
(PID.TID 0000.0001) %MON dynstat_eta_sd               =   9.1746713499813E-09
(PID.TID 0000.0001) %MON dynstat_eta_del2             =   4.8746560795827E-13
(PID.TID 0000.0001) %MON dynstat_uvel_max             =   3.5931848215252E-08
(PID.TID 0000.0001) %MON dynstat_uvel_min             =  -4.6858612036263E-08
(PID.TID 0000.0001) %MON dynstat_uvel_mean            =   1.1057289542310E-13
(PID.TID 0000.0001) %MON dynstat_uvel_sd              =   1.1703809889659E-08
(PID.TID 0000.0001) %MON dynstat_uvel_del2            =   2.3171814347592E-12
(PID.TID 0000.0001) %MON dynstat_vvel_max             =   4.3437202911736E-08
(PID.TID 0000.0001) %MON dynstat_vvel_min             =  -3.9336369358777E-08
(PID.TID 0000.0001) %MON dynstat_vvel_mean            =   2.4536910387151E-14
(PID.TID 0000.0001) %MON dynstat_vvel_sd              =   1.1050872124565E-08
(PID.TID 0000.0001) %MON dynstat_vvel_del2            =   2.2787529316211E-12
(PID.TID 0000.0001) %MON dynstat_wvel_max             =   3.1399435617141E-14
(PID.TID 0000.0001) %MON dynstat_wvel_min             =  -2.7489039379214E-14
(PID.TID 0000.0001) %MON dynstat_wvel_mean            =   1.9674997689850E-27
(PID.TID 0000.0001) %MON dynstat_wvel_sd              =   1.2168975856384E-14
(PID.TID 0000.0001) %MON dynstat_wvel_del2            =   6.5774405440774E-19
(PID.TID 0000.0001) %MON dynstat_theta_max            =   2.0000000000000E+01
(PID.TID 0000.0001) %MON dynstat_theta_min            =   2.0000000000000E+01
(PID.TID 0000.0001) %MON dynstat_theta_mean           =   2.0000000000000E+01
(PID.TID 0000.0001) %MON dynstat_theta_sd             =   0.0000000000000E+00
(PID.TID 0000.0001) %MON dynstat_theta_del2           =   0.0000000000000E+00
(PID.TID 0000.0001) %MON dynstat_salt_max             =   3.0000000000000E+01
(PID.TID 0000.0001) %MON dynstat_salt_min             =   3.0000000000000E+01
(PID.TID 0000.0001) %MON dynstat_salt_mean            =   3.0000000000000E+01
(PID.TID 0000.0001) %MON dynstat_salt_sd              =   0.0000000000000E+00
(PID.TID 0000.0001) %MON dynstat_salt_del2            =   0.0000000000000E+00
(PID.TID 0000.0001) %MON trAdv_CFL_u_max              =   5.0941867256152E-08
(PID.TID 0000.0001) %MON trAdv_CFL_v_max              =   4.7053546029211E-08
(PID.TID 0000.0001) %MON trAdv_CFL_w_max              =   3.4058577436724E-14
(PID.TID 0000.0001) %MON advcfl_uvel_max              =   5.0607300999164E-08
(PID.TID 0000.0001) %MON advcfl_vvel_max              =   4.6912179144674E-08
(PID.TID 0000.0001) %MON advcfl_wvel_max              =   6.7822780933025E-14
(PID.TID 0000.0001) %MON advcfl_W_hf_max              =   0.0000000000000E+00
(PID.TID 0000.0001) %MON pe_b_mean                    =   8.2575277237902E-20
(PID.TID 0000.0001) %MON ke_max                       =   1.0927811179536E-15
(PID.TID 0000.0001) %MON ke_mean                      =   1.2902384240163E-16
(PID.TID 0000.0001) %MON ke_vol                       =   7.5645000000000E+15
(PID.TID 0000.0001) %MON vort_r_min                   =  -2.6509887847413E-12
(PID.TID 0000.0001) %MON vort_r_max                   =   2.9703706873777E-12
(PID.TID 0000.0001) %MON vort_a_mean                  =   8.2299999999999E-05
(PID.TID 0000.0001) %MON vort_a_sd                    =   7.1297555115743E-06
(PID.TID 0000.0001) %MON vort_p_mean                  =   8.3303658536584E-05
(PID.TID 0000.0001) %MON vort_p_sd                    =   1.7411470244041E-05
(PID.TID 0000.0001) %MON surfExpan_theta_mean         =   3.9200140601676E-26
(PID.TID 0000.0001) %MON surfExpan_salt_mean          =   5.8797848235425E-26
(PID.TID 0000.0001) // =======================================================
(PID.TID 0000.0001) // End MONITOR dynamic field statistics
(PID.TID 0000.0001) // =======================================================
 cg2d: Sum(rhs),rhsMax =  -5.94203317935058E-04  6.85030967535652E-09
 cg2d: Sum(rhs),rhsMax =  -5.97845948029235E-04  6.80857800582253E-09
 cg2d: Sum(rhs),rhsMax =  -6.01509389483927E-04  6.76711752626286E-09
 cg2d: Sum(rhs),rhsMax =  -6.05193711753787E-04  6.72592680360705E-09
 cg2d: Sum(rhs),rhsMax =  -6.08898990795963E-04  6.68500439736503E-09
 cg2d: Sum(rhs),rhsMax =  -6.12625291330824E-04  6.64434886021905E-09
 cg2d: Sum(rhs),rhsMax =  -6.16372683330110E-04  6.60395873861243E-09
 cg2d: Sum(rhs),rhsMax =  -6.20141251806015E-04  6.56383257332174E-09
 cg2d: Sum(rhs),rhsMax =  -6.23931060996965E-04  6.52396889999478E-09
 cg2d: Sum(rhs),rhsMax =  -6.27742187386581E-04  6.48436624967952E-09
 cg2d: Sum(rhs),rhsMax =  -6.31574703414409E-04  6.44502314933519E-09
 cg2d: Sum(rhs),rhsMax =  -6.35428689214567E-04  6.40593812231831E-09
 cg2d: Sum(rhs),rhsMax =  -6.39304219627929E-04  6.36710968886583E-09
 cg2d: Sum(rhs),rhsMax =  -6.43201365798904E-04  6.32853636654443E-09
 cg2d: Sum(rhs),rhsMax =  -6.47120208386863E-04  6.29021667069361E-09
 cg2d: Sum(rhs),rhsMax =  -6.51060826139814E-04  6.25214911485872E-09
(PID.TID 0000.0001)      cg2d_init_res =   3.31684717371118E-01
(PID.TID 0000.0001)      cg2d_iters(min,last) =      -1     529
(PID.TID 0000.0001)      cg2d_last_res =   9.64379576012120E-08
(PID.TID 0000.0001) // =======================================================
(PID.TID 0000.0001) // Begin MONITOR dynamic field statistics
(PID.TID 0000.0001) // =======================================================
(PID.TID 0000.0001) %MON time_tsnumber                =                   336
(PID.TID 0000.0001) %MON time_secondsf                =   1.8144000000000E+06
(PID.TID 0000.0001) %MON dynstat_eta_max              =   2.4609955024633E-08
(PID.TID 0000.0001) %MON dynstat_eta_min              =  -2.8934429331062E-08
(PID.TID 0000.0001) %MON dynstat_eta_mean             =   3.9228211744988E-13
(PID.TID 0000.0001) %MON dynstat_eta_sd               =   8.8092296376456E-09
(PID.TID 0000.0001) %MON dynstat_eta_del2             =   4.4375542188695E-13
(PID.TID 0000.0001) %MON dynstat_uvel_max             =   3.5192281399450E-08
(PID.TID 0000.0001) %MON dynstat_uvel_min             =  -4.2178041061085E-08
(PID.TID 0000.0001) %MON dynstat_uvel_mean            =   2.0993669870639E-13
(PID.TID 0000.0001) %MON dynstat_uvel_sd              =   1.1056165592048E-08
(PID.TID 0000.0001) %MON dynstat_uvel_del2            =   2.0572268484862E-12
(PID.TID 0000.0001) %MON dynstat_vvel_max             =   4.1427269372327E-08
(PID.TID 0000.0001) %MON dynstat_vvel_min             =  -3.4849773057283E-08
(PID.TID 0000.0001) %MON dynstat_vvel_mean            =   1.4171969004311E-15
(PID.TID 0000.0001) %MON dynstat_vvel_sd              =   1.0500693661083E-08
(PID.TID 0000.0001) %MON dynstat_vvel_del2            =   2.0180085177341E-12
(PID.TID 0000.0001) %MON dynstat_wvel_max             =   2.9041034134147E-14
(PID.TID 0000.0001) %MON dynstat_wvel_min             =  -2.8277496294526E-14
(PID.TID 0000.0001) %MON dynstat_wvel_mean            =   3.0590380250182E-27
(PID.TID 0000.0001) %MON dynstat_wvel_sd              =   1.2012159027637E-14
(PID.TID 0000.0001) %MON dynstat_wvel_del2            =   5.7247472982859E-19
(PID.TID 0000.0001) %MON dynstat_theta_max            =   2.0000000000000E+01
(PID.TID 0000.0001) %MON dynstat_theta_min            =   2.0000000000000E+01
(PID.TID 0000.0001) %MON dynstat_theta_mean           =   2.0000000000000E+01
(PID.TID 0000.0001) %MON dynstat_theta_sd             =   0.0000000000000E+00
(PID.TID 0000.0001) %MON dynstat_theta_del2           =   0.0000000000000E+00
(PID.TID 0000.0001) %MON dynstat_salt_max             =   3.0000000000000E+01
(PID.TID 0000.0001) %MON dynstat_salt_min             =   3.0000000000000E+01
(PID.TID 0000.0001) %MON dynstat_salt_mean            =   3.0000000000000E+01
(PID.TID 0000.0001) %MON dynstat_salt_sd              =   0.0000000000000E+00
(PID.TID 0000.0001) %MON dynstat_salt_del2            =   0.0000000000000E+00
(PID.TID 0000.0001) %MON trAdv_CFL_u_max              =   4.5852308987049E-08
(PID.TID 0000.0001) %MON trAdv_CFL_v_max              =   4.4866641447438E-08
(PID.TID 0000.0001) %MON trAdv_CFL_w_max              =   3.1533521272165E-14
(PID.TID 0000.0001) %MON advcfl_uvel_max              =   4.5552284345971E-08
(PID.TID 0000.0001) %MON advcfl_vvel_max              =   4.4741450922113E-08
(PID.TID 0000.0001) %MON advcfl_wvel_max              =   6.2728633729758E-14
(PID.TID 0000.0001) %MON advcfl_W_hf_max              =   0.0000000000000E+00
(PID.TID 0000.0001) %MON pe_b_mean                    =   7.6128078950368E-20
(PID.TID 0000.0001) %MON ke_max                       =   8.8474991880824E-16
(PID.TID 0000.0001) %MON ke_mean                      =   1.1577911468833E-16
(PID.TID 0000.0001) %MON ke_vol                       =   7.5645000000000E+15
(PID.TID 0000.0001) %MON vort_r_min                   =  -2.3607905786066E-12
(PID.TID 0000.0001) %MON vort_r_max                   =   2.6835280105659E-12
(PID.TID 0000.0001) %MON vort_a_mean                  =   8.2300000000000E-05
(PID.TID 0000.0001) %MON vort_a_sd                    =   7.1297555115645E-06
(PID.TID 0000.0001) %MON vort_p_mean                  =   8.3303658536585E-05
(PID.TID 0000.0001) %MON vort_p_sd                    =   1.7411470242155E-05
(PID.TID 0000.0001) %MON surfExpan_theta_mean         =   6.0822279934186E-26
(PID.TID 0000.0001) %MON surfExpan_salt_mean          =   9.1246552299197E-26
(PID.TID 0000.0001) // =======================================================
(PID.TID 0000.0001) // End MONITOR dynamic field statistics
(PID.TID 0000.0001) // =======================================================
 cg2d: Sum(rhs),rhsMax =  -6.55023291599393E-04  6.21433221119368E-09
 cg2d: Sum(rhs),rhsMax =  -6.59007692687848E-04  6.17676447085805E-09
 cg2d: Sum(rhs),rhsMax =  -6.63014099040893E-04  6.13944440440295E-09
 cg2d: Sum(rhs),rhsMax =  -6.67042595447699E-04  6.10237052213910E-09
 cg2d: Sum(rhs),rhsMax =  -6.71093258181335E-04  6.06554133448748E-09
 cg2d: Sum(rhs),rhsMax =  -6.75166172589874E-04  6.02895535232359E-09
 cg2d: Sum(rhs),rhsMax =  -6.79261419868645E-04  5.99261108730543E-09
 cg2d: Sum(rhs),rhsMax =  -6.83379078332150E-04  5.95650705219257E-09
 cg2d: Sum(rhs),rhsMax =  -6.87519227834976E-04  5.92064176114883E-09
 cg2d: Sum(rhs),rhsMax =  -6.91681949898432E-04  5.88501373003719E-09
 cg2d: Sum(rhs),rhsMax =  -6.95867338200755E-04  5.84962147669977E-09
 cg2d: Sum(rhs),rhsMax =  -7.00075405686153E-04  5.81446352249080E-09
 cg2d: Sum(rhs),rhsMax =  -7.04306299712890E-04  5.77953838767488E-09
 cg2d: Sum(rhs),rhsMax =  -7.08560107935807E-04  5.74484459853862E-09
 cg2d: Sum(rhs),rhsMax =  -7.12836909071688E-04  5.71038068357844E-09
 cg2d: Sum(rhs),rhsMax =  -7.17136788504910E-04  5.67614517447684E-09
(PID.TID 0000.0001)      cg2d_init_res =   3.20927828174705E-01
(PID.TID 0000.0001)      cg2d_iters(min,last) =      -1     530
(PID.TID 0000.0001)      cg2d_last_res =   9.82130737917374E-08
(PID.TID 0000.0001) // =======================================================
(PID.TID 0000.0001) // Begin MONITOR dynamic field statistics
(PID.TID 0000.0001) // =======================================================
(PID.TID 0000.0001) %MON time_tsnumber                =                   352
(PID.TID 0000.0001) %MON time_secondsf                =   1.9008000000000E+06
(PID.TID 0000.0001) %MON dynstat_eta_max              =   2.4298878089971E-08
(PID.TID 0000.0001) %MON dynstat_eta_min              =  -2.8151736684620E-08
(PID.TID 0000.0001) %MON dynstat_eta_mean             =   3.9228622525723E-13
(PID.TID 0000.0001) %MON dynstat_eta_sd               =   8.4561701623335E-09
(PID.TID 0000.0001) %MON dynstat_eta_del2             =   4.0618255463218E-13
(PID.TID 0000.0001) %MON dynstat_uvel_max             =   3.4410074602143E-08
(PID.TID 0000.0001) %MON dynstat_uvel_min             =  -3.8246066695790E-08
(PID.TID 0000.0001) %MON dynstat_uvel_mean            =   2.9320415760438E-13
(PID.TID 0000.0001) %MON dynstat_uvel_sd              =   1.0485916116391E-08
(PID.TID 0000.0001) %MON dynstat_uvel_del2            =   1.8355493682083E-12
(PID.TID 0000.0001) %MON dynstat_vvel_max             =   3.9554677558389E-08
(PID.TID 0000.0001) %MON dynstat_vvel_min             =  -3.2899791695745E-08
(PID.TID 0000.0001) %MON dynstat_vvel_mean            =  -2.1330753019357E-14
(PID.TID 0000.0001) %MON dynstat_vvel_sd              =   1.0019835876258E-08
(PID.TID 0000.0001) %MON dynstat_vvel_del2            =   1.7983135735241E-12
(PID.TID 0000.0001) %MON dynstat_wvel_max             =   2.6393708792982E-14
(PID.TID 0000.0001) %MON dynstat_wvel_min             =  -2.8424844138453E-14
(PID.TID 0000.0001) %MON dynstat_wvel_mean            =   6.6551979902958E-28
(PID.TID 0000.0001) %MON dynstat_wvel_sd              =   1.1850924287010E-14
(PID.TID 0000.0001) %MON dynstat_wvel_del2            =   5.0191673930172E-19
(PID.TID 0000.0001) %MON dynstat_theta_max            =   2.0000000000000E+01
(PID.TID 0000.0001) %MON dynstat_theta_min            =   2.0000000000000E+01
(PID.TID 0000.0001) %MON dynstat_theta_mean           =   2.0000000000000E+01
(PID.TID 0000.0001) %MON dynstat_theta_sd             =   0.0000000000000E+00
(PID.TID 0000.0001) %MON dynstat_theta_del2           =   0.0000000000000E+00
(PID.TID 0000.0001) %MON dynstat_salt_max             =   3.0000000000000E+01
(PID.TID 0000.0001) %MON dynstat_salt_min             =   3.0000000000000E+01
(PID.TID 0000.0001) %MON dynstat_salt_mean            =   3.0000000000000E+01
(PID.TID 0000.0001) %MON dynstat_salt_sd              =   0.0000000000000E+00
(PID.TID 0000.0001) %MON dynstat_salt_del2            =   0.0000000000000E+00
(PID.TID 0000.0001) %MON trAdv_CFL_u_max              =   4.1430728488334E-08
(PID.TID 0000.0001) %MON trAdv_CFL_v_max              =   4.2846552788350E-08
(PID.TID 0000.0001) %MON trAdv_CFL_w_max              =   2.8687337679356E-14
(PID.TID 0000.0001) %MON advcfl_uvel_max              =   4.1305752031454E-08
(PID.TID 0000.0001) %MON advcfl_vvel_max              =   4.2719051763060E-08
(PID.TID 0000.0001) %MON advcfl_wvel_max              =   6.1397663339058E-14
(PID.TID 0000.0001) %MON advcfl_W_hf_max              =   0.0000000000000E+00
(PID.TID 0000.0001) %MON pe_b_mean                    =   7.0148184502831E-20
(PID.TID 0000.0001) %MON ke_max                       =   8.0547591035983E-16
(PID.TID 0000.0001) %MON ke_mean                      =   1.0474823014028E-16
(PID.TID 0000.0001) %MON ke_vol                       =   7.5645000000000E+15
(PID.TID 0000.0001) %MON vort_r_min                   =  -2.1091837781355E-12
(PID.TID 0000.0001) %MON vort_r_max                   =   2.4272701454719E-12
(PID.TID 0000.0001) %MON vort_a_mean                  =   8.2299999999999E-05
(PID.TID 0000.0001) %MON vort_a_sd                    =   7.1297555115643E-06
(PID.TID 0000.0001) %MON vort_p_mean                  =   8.3303658536585E-05
(PID.TID 0000.0001) %MON vort_p_sd                    =   1.7411470240490E-05
(PID.TID 0000.0001) %MON surfExpan_theta_mean         =   1.3278762345165E-26
(PID.TID 0000.0001) %MON surfExpan_salt_mean          =   1.9919106500541E-26
(PID.TID 0000.0001) // =======================================================
(PID.TID 0000.0001) // End MONITOR dynamic field statistics
(PID.TID 0000.0001) // =======================================================
 cg2d: Sum(rhs),rhsMax =  -7.21459838788313E-04  5.64213660629852E-09
 cg2d: Sum(rhs),rhsMax =  -7.25806142353810E-04  5.60835351778856E-09
 cg2d: Sum(rhs),rhsMax =  -7.30175786776107E-04  5.57479445156646E-09
 cg2d: Sum(rhs),rhsMax =  -7.34568796538328E-04  5.54145795481486E-09
 cg2d: Sum(rhs),rhsMax =  -7.38985320046772E-04  5.50834257723407E-09
 cg2d: Sum(rhs),rhsMax =  -7.43425446095925E-04  5.47544687529041E-09
 cg2d: Sum(rhs),rhsMax =  -7.47889260728577E-04  5.44276940859145E-09
 cg2d: Sum(rhs),rhsMax =  -7.52376793251493E-04  5.41030873984211E-09
 cg2d: Sum(rhs),rhsMax =  -7.56888193586863E-04  5.37806344390882E-09
 cg2d: Sum(rhs),rhsMax =  -7.61423554907461E-04  5.34603209189965E-09
 cg2d: Sum(rhs),rhsMax =  -7.65982969292596E-04  5.31421326474680E-09
 cg2d: Sum(rhs),rhsMax =  -7.70566451906844E-04  5.28260554849369E-09
 cg2d: Sum(rhs),rhsMax =  -7.75174166641943E-04  5.25120753220636E-09
 cg2d: Sum(rhs),rhsMax =  -7.79806202628321E-04  5.22001781352569E-09
 cg2d: Sum(rhs),rhsMax =  -7.84462652459819E-04  5.18903499444753E-09
 cg2d: Sum(rhs),rhsMax =  -7.89143611954435E-04  5.15825768322908E-09
(PID.TID 0000.0001)      cg2d_init_res =   3.12452926742909E-01
(PID.TID 0000.0001)      cg2d_iters(min,last) =      -1     534
(PID.TID 0000.0001)      cg2d_last_res =   9.20611571167828E-08
(PID.TID 0000.0001) // =======================================================
(PID.TID 0000.0001) // Begin MONITOR dynamic field statistics
(PID.TID 0000.0001) // =======================================================
(PID.TID 0000.0001) %MON time_tsnumber                =                   368
(PID.TID 0000.0001) %MON time_secondsf                =   1.9872000000000E+06
(PID.TID 0000.0001) %MON dynstat_eta_max              =   2.3735878108924E-08
(PID.TID 0000.0001) %MON dynstat_eta_min              =  -2.7314441536590E-08
(PID.TID 0000.0001) %MON dynstat_eta_mean             =   3.9228938574219E-13
(PID.TID 0000.0001) %MON dynstat_eta_sd               =   8.1262775561714E-09
(PID.TID 0000.0001) %MON dynstat_eta_del2             =   3.7369362492543E-13
(PID.TID 0000.0001) %MON dynstat_uvel_max             =   3.3578952660408E-08
(PID.TID 0000.0001) %MON dynstat_uvel_min             =  -3.6580244951168E-08
(PID.TID 0000.0001) %MON dynstat_uvel_mean            =   3.5643362249468E-13
(PID.TID 0000.0001) %MON dynstat_uvel_sd              =   9.9826967068649E-09
(PID.TID 0000.0001) %MON dynstat_uvel_del2            =   1.6454159363147E-12
(PID.TID 0000.0001) %MON dynstat_vvel_max             =   3.7647209104922E-08
(PID.TID 0000.0001) %MON dynstat_vvel_min             =  -3.1812155701023E-08
(PID.TID 0000.0001) %MON dynstat_vvel_mean            =  -4.3353639738142E-14
(PID.TID 0000.0001) %MON dynstat_vvel_sd              =   9.5947638743456E-09
(PID.TID 0000.0001) %MON dynstat_vvel_del2            =   1.6115760304390E-12
(PID.TID 0000.0001) %MON dynstat_wvel_max             =   2.3581238244308E-14
(PID.TID 0000.0001) %MON dynstat_wvel_min             =  -2.8978814181624E-14
(PID.TID 0000.0001) %MON dynstat_wvel_mean            =   2.4518323504985E-27
(PID.TID 0000.0001) %MON dynstat_wvel_sd              =   1.1671937376564E-14
(PID.TID 0000.0001) %MON dynstat_wvel_del2            =   4.4311236669625E-19
(PID.TID 0000.0001) %MON dynstat_theta_max            =   2.0000000000000E+01
(PID.TID 0000.0001) %MON dynstat_theta_min            =   2.0000000000000E+01
(PID.TID 0000.0001) %MON dynstat_theta_mean           =   2.0000000000000E+01
(PID.TID 0000.0001) %MON dynstat_theta_sd             =   0.0000000000000E+00
(PID.TID 0000.0001) %MON dynstat_theta_del2           =   0.0000000000000E+00
(PID.TID 0000.0001) %MON dynstat_salt_max             =   3.0000000000000E+01
(PID.TID 0000.0001) %MON dynstat_salt_min             =   3.0000000000000E+01
(PID.TID 0000.0001) %MON dynstat_salt_mean            =   3.0000000000000E+01
(PID.TID 0000.0001) %MON dynstat_salt_sd              =   0.0000000000000E+00
(PID.TID 0000.0001) %MON dynstat_salt_del2            =   0.0000000000000E+00
(PID.TID 0000.0001) %MON trAdv_CFL_u_max              =   3.9598356057313E-08
(PID.TID 0000.0001) %MON trAdv_CFL_v_max              =   4.0788820300620E-08
(PID.TID 0000.0001) %MON trAdv_CFL_w_max              =   2.5665018496435E-14
(PID.TID 0000.0001) %MON advcfl_uvel_max              =   3.9506664547261E-08
(PID.TID 0000.0001) %MON advcfl_vvel_max              =   4.0658985833316E-08
(PID.TID 0000.0001) %MON advcfl_wvel_max              =   6.2594238632308E-14
(PID.TID 0000.0001) %MON advcfl_W_hf_max              =   0.0000000000000E+00
(PID.TID 0000.0001) %MON pe_b_mean                    =   6.4781695719424E-20
(PID.TID 0000.0001) %MON ke_max                       =   7.6749034430021E-16
(PID.TID 0000.0001) %MON ke_mean                      =   9.5467201689598E-17
(PID.TID 0000.0001) %MON ke_vol                       =   7.5645000000000E+15
(PID.TID 0000.0001) %MON vort_r_min                   =  -1.8884854621776E-12
(PID.TID 0000.0001) %MON vort_r_max                   =   2.2123106649627E-12
(PID.TID 0000.0001) %MON vort_a_mean                  =   8.2300000000000E-05
(PID.TID 0000.0001) %MON vort_a_sd                    =   7.1297555115623E-06
(PID.TID 0000.0001) %MON vort_p_mean                  =   8.3303658536585E-05
(PID.TID 0000.0001) %MON vort_p_sd                    =   1.7411470239010E-05
(PID.TID 0000.0001) %MON surfExpan_theta_mean         =   4.8532756221033E-26
(PID.TID 0000.0001) %MON surfExpan_salt_mean          =   7.2812929619950E-26
(PID.TID 0000.0001) // =======================================================
(PID.TID 0000.0001) // End MONITOR dynamic field statistics
(PID.TID 0000.0001) // =======================================================
 cg2d: Sum(rhs),rhsMax =  -7.93849107243352E-04  5.12768449379368E-09
 cg2d: Sum(rhs),rhsMax =  -7.98579294268038E-04  5.09731404640307E-09
 cg2d: Sum(rhs),rhsMax =  -8.03334266215690E-04  5.06714496731629E-09
 cg2d: Sum(rhs),rhsMax =  -8.08114119608856E-04  5.03717588914491E-09
 cg2d: Sum(rhs),rhsMax =  -8.12918950879406E-04  5.00740545070263E-09
 cg2d: Sum(rhs),rhsMax =  -8.17748856067009E-04  4.97783229732095E-09
 cg2d: Sum(rhs),rhsMax =  -8.22603929201820E-04  4.94845508079751E-09
 cg2d: Sum(rhs),rhsMax =  -8.27484265846505E-04  4.91927245950953E-09
 cg2d: Sum(rhs),rhsMax =  -8.32389902301854E-04  4.89028309966605E-09
 cg2d: Sum(rhs),rhsMax =  -8.37320985139730E-04  4.86148566980043E-09
 cg2d: Sum(rhs),rhsMax =  -8.42277632283109E-04  4.83287885100857E-09
 cg2d: Sum(rhs),rhsMax =  -8.47259926873506E-04  4.80446132787338E-09
 cg2d: Sum(rhs),rhsMax =  -8.50071668373726E-04  4.78857202261692E-09
 cg2d: Sum(rhs),rhsMax =  -8.52661908252979E-04  4.77402743475212E-09
 cg2d: Sum(rhs),rhsMax =  -8.55273096687400E-04  4.75945439170429E-09
 cg2d: Sum(rhs),rhsMax =  -8.57905271472060E-04  4.74485405733900E-09
(PID.TID 0000.0001)      cg2d_init_res =   3.02612420293565E-01
(PID.TID 0000.0001)      cg2d_iters(min,last) =      -1     535
(PID.TID 0000.0001)      cg2d_last_res =   9.94286841745823E-08
(PID.TID 0000.0001) // =======================================================
(PID.TID 0000.0001) // Begin MONITOR dynamic field statistics
(PID.TID 0000.0001) // =======================================================
(PID.TID 0000.0001) %MON time_tsnumber                =                   384
(PID.TID 0000.0001) %MON time_secondsf                =   2.0736000000000E+06
(PID.TID 0000.0001) %MON dynstat_eta_max              =   2.2950448319511E-08
(PID.TID 0000.0001) %MON dynstat_eta_min              =  -2.6437028754408E-08
(PID.TID 0000.0001) %MON dynstat_eta_mean             =   3.9229224138030E-13
(PID.TID 0000.0001) %MON dynstat_eta_sd               =   7.8292728099851E-09
(PID.TID 0000.0001) %MON dynstat_eta_del2             =   3.4543799564832E-13
(PID.TID 0000.0001) %MON dynstat_uvel_max             =   3.2664415411144E-08
(PID.TID 0000.0001) %MON dynstat_uvel_min             =  -3.5304129485799E-08
(PID.TID 0000.0001) %MON dynstat_uvel_mean            =   3.9688948624827E-13
(PID.TID 0000.0001) %MON dynstat_uvel_sd              =   9.5373592641006E-09
(PID.TID 0000.0001) %MON dynstat_uvel_del2            =   1.4815032943537E-12
(PID.TID 0000.0001) %MON dynstat_vvel_max             =   3.6578695340283E-08
(PID.TID 0000.0001) %MON dynstat_vvel_min             =  -3.0627884398310E-08
(PID.TID 0000.0001) %MON dynstat_vvel_mean            =  -6.4252428571332E-14
(PID.TID 0000.0001) %MON dynstat_vvel_sd              =   9.2153643184854E-09
(PID.TID 0000.0001) %MON dynstat_vvel_del2            =   1.4516418894101E-12
(PID.TID 0000.0001) %MON dynstat_wvel_max             =   2.1523606656970E-14
(PID.TID 0000.0001) %MON dynstat_wvel_min             =  -2.9352452952658E-14
(PID.TID 0000.0001) %MON dynstat_wvel_mean            =   8.7993330906029E-28
(PID.TID 0000.0001) %MON dynstat_wvel_sd              =   1.1466993927815E-14
(PID.TID 0000.0001) %MON dynstat_wvel_del2            =   3.9391818733419E-19
(PID.TID 0000.0001) %MON dynstat_theta_max            =   2.0000000000000E+01
(PID.TID 0000.0001) %MON dynstat_theta_min            =   2.0000000000000E+01
(PID.TID 0000.0001) %MON dynstat_theta_mean           =   2.0000000000000E+01
(PID.TID 0000.0001) %MON dynstat_theta_sd             =   0.0000000000000E+00
(PID.TID 0000.0001) %MON dynstat_theta_del2           =   0.0000000000000E+00
(PID.TID 0000.0001) %MON dynstat_salt_max             =   3.0000000000000E+01
(PID.TID 0000.0001) %MON dynstat_salt_min             =   3.0000000000000E+01
(PID.TID 0000.0001) %MON dynstat_salt_mean            =   3.0000000000000E+01
(PID.TID 0000.0001) %MON dynstat_salt_sd              =   0.0000000000000E+00
(PID.TID 0000.0001) %MON dynstat_salt_del2            =   0.0000000000000E+00
(PID.TID 0000.0001) %MON trAdv_CFL_u_max              =   3.8214688639523E-08
(PID.TID 0000.0001) %MON trAdv_CFL_v_max              =   3.9574741640193E-08
(PID.TID 0000.0001) %MON trAdv_CFL_w_max              =   2.3267838155405E-14
(PID.TID 0000.0001) %MON advcfl_uvel_max              =   3.8128459844663E-08
(PID.TID 0000.0001) %MON advcfl_vvel_max              =   3.9504990967505E-08
(PID.TID 0000.0001) %MON advcfl_wvel_max              =   6.3401298377741E-14
(PID.TID 0000.0001) %MON advcfl_W_hf_max              =   0.0000000000000E+00
(PID.TID 0000.0001) %MON pe_b_mean                    =   6.0132860142210E-20
(PID.TID 0000.0001) %MON ke_max                       =   7.2547927805096E-16
(PID.TID 0000.0001) %MON ke_mean                      =   8.7584592575335E-17
(PID.TID 0000.0001) %MON ke_vol                       =   7.5645000000000E+15
(PID.TID 0000.0001) %MON vort_r_min                   =  -1.6946149881190E-12
(PID.TID 0000.0001) %MON vort_r_max                   =   2.0709574165085E-12
(PID.TID 0000.0001) %MON vort_a_mean                  =   8.2300000000000E-05
(PID.TID 0000.0001) %MON vort_a_sd                    =   7.1297555115599E-06
(PID.TID 0000.0001) %MON vort_p_mean                  =   8.3303658536586E-05
(PID.TID 0000.0001) %MON vort_p_sd                    =   1.7411470237693E-05
(PID.TID 0000.0001) %MON surfExpan_theta_mean         =   1.7492569018860E-26
(PID.TID 0000.0001) %MON surfExpan_salt_mean          =   2.6292888060516E-26
(PID.TID 0000.0001) // =======================================================
(PID.TID 0000.0001) // End MONITOR dynamic field statistics
(PID.TID 0000.0001) // =======================================================
 cg2d: Sum(rhs),rhsMax =  -8.60558461589492E-04  4.73022760952710E-09
 cg2d: Sum(rhs),rhsMax =  -8.63232608712559E-04  4.71557623807958E-09
 cg2d: Sum(rhs),rhsMax =  -8.65927800355566E-04  4.70090114879192E-09
 cg2d: Sum(rhs),rhsMax =  -8.68644055290478E-04  4.68620355679543E-09
 cg2d: Sum(rhs),rhsMax =  -8.71381382840457E-04  4.67148468968026E-09
 cg2d: Sum(rhs),rhsMax =  -8.74139788341956E-04  4.65674578642705E-09
 cg2d: Sum(rhs),rhsMax =  -8.76919253767112E-04  4.64198809714858E-09
 cg2d: Sum(rhs),rhsMax =  -8.79719808101686E-04  4.62721288157408E-09
 cg2d: Sum(rhs),rhsMax =  -8.82541426954848E-04  4.61242140964750E-09
 cg2d: Sum(rhs),rhsMax =  -8.85384097703289E-04  4.59761496168151E-09
 cg2d: Sum(rhs),rhsMax =  -8.88247804920793E-04  4.58279482559592E-09
 cg2d: Sum(rhs),rhsMax =  -8.91132524969079E-04  4.56796229837521E-09
 cg2d: Sum(rhs),rhsMax =  -8.94038226520068E-04  4.55311868493175E-09
 cg2d: Sum(rhs),rhsMax =  -8.96964793019036E-04  4.53826529886367E-09
 cg2d: Sum(rhs),rhsMax =  -8.99912275069714E-04  4.52340345741908E-09
 cg2d: Sum(rhs),rhsMax =  -9.02880628995231E-04  4.50853448796982E-09
(PID.TID 0000.0001)      cg2d_init_res =   2.85605008752211E-01
(PID.TID 0000.0001)      cg2d_iters(min,last) =      -1     537
(PID.TID 0000.0001)      cg2d_last_res =   9.31683626438541E-08
(PID.TID 0000.0001) // =======================================================
(PID.TID 0000.0001) // Begin MONITOR dynamic field statistics
(PID.TID 0000.0001) // =======================================================
(PID.TID 0000.0001) %MON time_tsnumber                =                   400
(PID.TID 0000.0001) %MON time_secondsf                =   2.1600000000000E+06
(PID.TID 0000.0001) %MON dynstat_eta_max              =   2.1977809564340E-08
(PID.TID 0000.0001) %MON dynstat_eta_min              =  -2.5531870474200E-08
(PID.TID 0000.0001) %MON dynstat_eta_mean             =   3.9229544947584E-13
(PID.TID 0000.0001) %MON dynstat_eta_sd               =   7.5725756495042E-09
(PID.TID 0000.0001) %MON dynstat_eta_del2             =   3.2072598437632E-13
(PID.TID 0000.0001) %MON dynstat_uvel_max             =   3.1676345248159E-08
(PID.TID 0000.0001) %MON dynstat_uvel_min             =  -3.4060633547415E-08
(PID.TID 0000.0001) %MON dynstat_uvel_mean            =   4.1316361492314E-13
(PID.TID 0000.0001) %MON dynstat_uvel_sd              =   9.1417770667813E-09
(PID.TID 0000.0001) %MON dynstat_uvel_del2            =   1.3395609406785E-12
(PID.TID 0000.0001) %MON dynstat_vvel_max             =   3.5457399941526E-08
(PID.TID 0000.0001) %MON dynstat_vvel_min             =  -2.9495975982640E-08
(PID.TID 0000.0001) %MON dynstat_vvel_mean            =  -8.3605985401697E-14
(PID.TID 0000.0001) %MON dynstat_vvel_sd              =   8.8741090778036E-09
(PID.TID 0000.0001) %MON dynstat_vvel_del2            =   1.3138312011355E-12
(PID.TID 0000.0001) %MON dynstat_wvel_max             =   2.1482084093805E-14
(PID.TID 0000.0001) %MON dynstat_wvel_min             =  -2.9336733200491E-14
(PID.TID 0000.0001) %MON dynstat_wvel_mean            =  -1.8710417078811E-28
(PID.TID 0000.0001) %MON dynstat_wvel_sd              =   1.1234477290582E-14
(PID.TID 0000.0001) %MON dynstat_wvel_del2            =   3.5244483654491E-19
(PID.TID 0000.0001) %MON dynstat_theta_max            =   2.0000000000000E+01
(PID.TID 0000.0001) %MON dynstat_theta_min            =   2.0000000000000E+01
(PID.TID 0000.0001) %MON dynstat_theta_mean           =   2.0000000000000E+01
(PID.TID 0000.0001) %MON dynstat_theta_sd             =   0.0000000000000E+00
(PID.TID 0000.0001) %MON dynstat_theta_del2           =   0.0000000000000E+00
(PID.TID 0000.0001) %MON dynstat_salt_max             =   3.0000000000000E+01
(PID.TID 0000.0001) %MON dynstat_salt_min             =   3.0000000000000E+01
(PID.TID 0000.0001) %MON dynstat_salt_mean            =   3.0000000000000E+01
(PID.TID 0000.0001) %MON dynstat_salt_sd              =   0.0000000000000E+00
(PID.TID 0000.0001) %MON dynstat_salt_del2            =   0.0000000000000E+00
(PID.TID 0000.0001) %MON trAdv_CFL_u_max              =   3.6869766175993E-08
(PID.TID 0000.0001) %MON trAdv_CFL_v_max              =   3.8374557835789E-08
(PID.TID 0000.0001) %MON trAdv_CFL_w_max              =   2.3196513012813E-14
(PID.TID 0000.0001) %MON advcfl_uvel_max              =   3.6785484231208E-08
(PID.TID 0000.0001) %MON advcfl_vvel_max              =   3.8293991936848E-08
(PID.TID 0000.0001) %MON advcfl_wvel_max              =   6.3367343713061E-14
(PID.TID 0000.0001) %MON advcfl_W_hf_max              =   0.0000000000000E+00
(PID.TID 0000.0001) %MON pe_b_mean                    =   5.6254367981054E-20
(PID.TID 0000.0001) %MON ke_max                       =   6.8004196976366E-16
(PID.TID 0000.0001) %MON ke_mean                      =   8.0831027459532E-17
(PID.TID 0000.0001) %MON ke_vol                       =   7.5645000000000E+15
(PID.TID 0000.0001) %MON vort_r_min                   =  -1.5243416954463E-12
(PID.TID 0000.0001) %MON vort_r_max                   =   1.9778711063923E-12
(PID.TID 0000.0001) %MON vort_a_mean                  =   8.2300000000000E-05
(PID.TID 0000.0001) %MON vort_a_sd                    =   7.1297555115580E-06
(PID.TID 0000.0001) %MON vort_p_mean                  =   8.3303658536586E-05
(PID.TID 0000.0001) %MON vort_p_sd                    =   1.7411470236519E-05
(PID.TID 0000.0001) %MON surfExpan_theta_mean         =  -3.7753578081476E-27
(PID.TID 0000.0001) %MON surfExpan_salt_mean          =  -5.6647031763417E-27
(PID.TID 0000.0001) // =======================================================
(PID.TID 0000.0001) // End MONITOR dynamic field statistics
(PID.TID 0000.0001) // =======================================================
 cg2d: Sum(rhs),rhsMax =  -9.05869811066067E-04  4.49365972228142E-09
 cg2d: Sum(rhs),rhsMax =  -9.08879762337538E-04  4.47878049898380E-09
 cg2d: Sum(rhs),rhsMax =  -9.11910436028978E-04  4.46389816084379E-09
 cg2d: Sum(rhs),rhsMax =  -9.14961760161818E-04  4.44901405619153E-09
 cg2d: Sum(rhs),rhsMax =  -9.18033674320111E-04  4.43412953710429E-09
 cg2d: Sum(rhs),rhsMax =  -9.21126095783044E-04  4.41924596001953E-09
 cg2d: Sum(rhs),rhsMax =  -9.24238950223631E-04  4.40436468443041E-09
 cg2d: Sum(rhs),rhsMax =  -9.27372156145898E-04  4.38948707314531E-09
 cg2d: Sum(rhs),rhsMax =  -9.30525621969660E-04  4.37461449125921E-09
 cg2d: Sum(rhs),rhsMax =  -9.33699253238792E-04  4.35974830620885E-09
 cg2d: Sum(rhs),rhsMax =  -9.36892944677537E-04  4.34488988691354E-09
 cg2d: Sum(rhs),rhsMax =  -9.40106596348737E-04  4.33004060370380E-09
 cg2d: Sum(rhs),rhsMax =  -9.43340084718457E-04  4.31520182757395E-09
 cg2d: Sum(rhs),rhsMax =  -9.46593295684263E-04  4.30037493002854E-09
 cg2d: Sum(rhs),rhsMax =  -9.49866110511397E-04  4.28556128241259E-09
 cg2d: Sum(rhs),rhsMax =  -9.53158385090597E-04  4.27076225570344E-09
(PID.TID 0000.0001)      cg2d_init_res =   2.72088787261243E-01
(PID.TID 0000.0001)      cg2d_iters(min,last) =      -1     537
(PID.TID 0000.0001)      cg2d_last_res =   9.70038216692449E-08
(PID.TID 0000.0001) // =======================================================
(PID.TID 0000.0001) // Begin MONITOR dynamic field statistics
(PID.TID 0000.0001) // =======================================================
(PID.TID 0000.0001) %MON time_tsnumber                =                   416
(PID.TID 0000.0001) %MON time_secondsf                =   2.2464000000000E+06
(PID.TID 0000.0001) %MON dynstat_eta_max              =   2.0883885195183E-08
(PID.TID 0000.0001) %MON dynstat_eta_min              =  -2.4637801191702E-08
(PID.TID 0000.0001) %MON dynstat_eta_mean             =   3.9229985796351E-13
(PID.TID 0000.0001) %MON dynstat_eta_sd               =   7.3602891628336E-09
(PID.TID 0000.0001) %MON dynstat_eta_del2             =   2.9899784733871E-13
(PID.TID 0000.0001) %MON dynstat_uvel_max             =   3.0626763918824E-08
(PID.TID 0000.0001) %MON dynstat_uvel_min             =  -3.2944550071131E-08
(PID.TID 0000.0001) %MON dynstat_uvel_mean            =   4.0522320740476E-13
(PID.TID 0000.0001) %MON dynstat_uvel_sd              =   8.7888181215340E-09
(PID.TID 0000.0001) %MON dynstat_uvel_del2            =   1.2161671419267E-12
(PID.TID 0000.0001) %MON dynstat_vvel_max             =   3.4195264456684E-08
(PID.TID 0000.0001) %MON dynstat_vvel_min             =  -2.8236203669827E-08
(PID.TID 0000.0001) %MON dynstat_vvel_mean            =  -1.0099523471147E-13
(PID.TID 0000.0001) %MON dynstat_vvel_sd              =   8.5652820137097E-09
(PID.TID 0000.0001) %MON dynstat_vvel_del2            =   1.1945816569200E-12
(PID.TID 0000.0001) %MON dynstat_wvel_max             =   2.1253792490405E-14
(PID.TID 0000.0001) %MON dynstat_wvel_min             =  -2.8608278694886E-14
(PID.TID 0000.0001) %MON dynstat_wvel_mean            =  -1.4802344381526E-27
(PID.TID 0000.0001) %MON dynstat_wvel_sd              =   1.0979798947600E-14
(PID.TID 0000.0001) %MON dynstat_wvel_del2            =   3.1743067044228E-19
(PID.TID 0000.0001) %MON dynstat_theta_max            =   2.0000000000000E+01
(PID.TID 0000.0001) %MON dynstat_theta_min            =   2.0000000000000E+01
(PID.TID 0000.0001) %MON dynstat_theta_mean           =   2.0000000000000E+01
(PID.TID 0000.0001) %MON dynstat_theta_sd             =   0.0000000000000E+00
(PID.TID 0000.0001) %MON dynstat_theta_del2           =   0.0000000000000E+00
(PID.TID 0000.0001) %MON dynstat_salt_max             =   3.0000000000000E+01
(PID.TID 0000.0001) %MON dynstat_salt_min             =   3.0000000000000E+01
(PID.TID 0000.0001) %MON dynstat_salt_mean            =   3.0000000000000E+01
(PID.TID 0000.0001) %MON dynstat_salt_sd              =   0.0000000000000E+00
(PID.TID 0000.0001) %MON dynstat_salt_del2            =   0.0000000000000E+00
(PID.TID 0000.0001) %MON trAdv_CFL_u_max              =   3.5655182838980E-08
(PID.TID 0000.0001) %MON trAdv_CFL_v_max              =   3.7019736740262E-08
(PID.TID 0000.0001) %MON trAdv_CFL_w_max              =   2.2988892724651E-14
(PID.TID 0000.0001) %MON advcfl_uvel_max              =   3.5580114076821E-08
(PID.TID 0000.0001) %MON advcfl_vvel_max              =   3.6930885613219E-08
(PID.TID 0000.0001) %MON advcfl_wvel_max              =   6.1793881980954E-14
(PID.TID 0000.0001) %MON advcfl_W_hf_max              =   0.0000000000000E+00
(PID.TID 0000.0001) %MON pe_b_mean                    =   5.3144553436851E-20
(PID.TID 0000.0001) %MON ke_max                       =   6.3246322357938E-16
(PID.TID 0000.0001) %MON ke_mean                      =   7.4997577499871E-17
(PID.TID 0000.0001) %MON ke_vol                       =   7.5645000000000E+15
(PID.TID 0000.0001) %MON vort_r_min                   =  -1.4139896760955E-12
(PID.TID 0000.0001) %MON vort_r_max                   =   1.8821805258709E-12
(PID.TID 0000.0001) %MON vort_a_mean                  =   8.2300000000000E-05
(PID.TID 0000.0001) %MON vort_a_sd                    =   7.1297555115570E-06
(PID.TID 0000.0001) %MON vort_p_mean                  =   8.3303658536586E-05
(PID.TID 0000.0001) %MON vort_p_sd                    =   1.7411470235467E-05
(PID.TID 0000.0001) %MON surfExpan_theta_mean         =  -2.9559477983942E-26
(PID.TID 0000.0001) %MON surfExpan_salt_mean          =  -4.4291231319331E-26
(PID.TID 0000.0001) // =======================================================
(PID.TID 0000.0001) // End MONITOR dynamic field statistics
(PID.TID 0000.0001) // =======================================================
 cg2d: Sum(rhs),rhsMax =  -9.56469993626662E-04  4.25597921989688E-09
 cg2d: Sum(rhs),rhsMax =  -9.59800788581912E-04  4.24121354376240E-09
 cg2d: Sum(rhs),rhsMax =  -9.63150620642248E-04  4.22646659427092E-09
 cg2d: Sum(rhs),rhsMax =  -9.66519335536398E-04  4.21173973632544E-09
 cg2d: Sum(rhs),rhsMax =  -9.69906765328087E-04  4.19703433222094E-09
 cg2d: Sum(rhs),rhsMax =  -9.73312748662819E-04  4.18235174135924E-09
 cg2d: Sum(rhs),rhsMax =  -9.76737113497504E-04  4.16769331973367E-09
 cg2d: Sum(rhs),rhsMax =  -9.80179666654065E-04  4.15306041963419E-09
 cg2d: Sum(rhs),rhsMax =  -9.83640230966853E-04  4.13845438915283E-09
 cg2d: Sum(rhs),rhsMax =  -9.87118611658899E-04  4.12387657188289E-09
 cg2d: Sum(rhs),rhsMax =  -9.90614608547921E-04  4.10932830644231E-09
 cg2d: Sum(rhs),rhsMax =  -9.94128014388436E-04  4.09481092616959E-09
 cg2d: Sum(rhs),rhsMax =  -9.97658618526126E-04  4.08032575866284E-09
 cg2d: Sum(rhs),rhsMax =  -1.00120620673785E-03  4.06587412547557E-09
 cg2d: Sum(rhs),rhsMax =  -1.00477054764767E-03  4.05145734166884E-09
 cg2d: Sum(rhs),rhsMax =  -1.00835141933587E-03  4.03707671550910E-09
(PID.TID 0000.0001)      cg2d_init_res =   2.61280554531643E-01
(PID.TID 0000.0001)      cg2d_iters(min,last) =      -1     537
(PID.TID 0000.0001)      cg2d_last_res =   9.82253160093284E-08
(PID.TID 0000.0001) // =======================================================
(PID.TID 0000.0001) // Begin MONITOR dynamic field statistics
(PID.TID 0000.0001) // =======================================================
(PID.TID 0000.0001) %MON time_tsnumber                =                   432
(PID.TID 0000.0001) %MON time_secondsf                =   2.3328000000000E+06
(PID.TID 0000.0001) %MON dynstat_eta_max              =   1.9756739203155E-08
(PID.TID 0000.0001) %MON dynstat_eta_min              =  -2.3766231745531E-08
(PID.TID 0000.0001) %MON dynstat_eta_mean             =   3.9230786741306E-13
(PID.TID 0000.0001) %MON dynstat_eta_sd               =   7.1926569922880E-09
(PID.TID 0000.0001) %MON dynstat_eta_del2             =   2.7979979910125E-13
(PID.TID 0000.0001) %MON dynstat_uvel_max             =   2.9528907663254E-08
(PID.TID 0000.0001) %MON dynstat_uvel_min             =  -3.1762684605642E-08
(PID.TID 0000.0001) %MON dynstat_uvel_mean            =   3.7438365400404E-13
(PID.TID 0000.0001) %MON dynstat_uvel_sd              =   8.4723734736692E-09
(PID.TID 0000.0001) %MON dynstat_uvel_del2            =   1.1085452784686E-12
(PID.TID 0000.0001) %MON dynstat_vvel_max             =   3.2832614792817E-08
(PID.TID 0000.0001) %MON dynstat_vvel_min             =  -2.6864675907710E-08
(PID.TID 0000.0001) %MON dynstat_vvel_mean            =  -1.1602679053123E-13
(PID.TID 0000.0001) %MON dynstat_vvel_sd              =   8.2843356120216E-09
(PID.TID 0000.0001) %MON dynstat_vvel_del2            =   1.0911688695158E-12
(PID.TID 0000.0001) %MON dynstat_wvel_max             =   2.0442203378934E-14
(PID.TID 0000.0001) %MON dynstat_wvel_min             =  -2.9005989912179E-14
(PID.TID 0000.0001) %MON dynstat_wvel_mean            =   4.5197122849921E-28
(PID.TID 0000.0001) %MON dynstat_wvel_sd              =   1.0714750457560E-14
(PID.TID 0000.0001) %MON dynstat_wvel_del2            =   2.8764836011470E-19
(PID.TID 0000.0001) %MON dynstat_theta_max            =   2.0000000000000E+01
(PID.TID 0000.0001) %MON dynstat_theta_min            =   2.0000000000000E+01
(PID.TID 0000.0001) %MON dynstat_theta_mean           =   2.0000000000000E+01
(PID.TID 0000.0001) %MON dynstat_theta_sd             =   0.0000000000000E+00
(PID.TID 0000.0001) %MON dynstat_theta_del2           =   0.0000000000000E+00
(PID.TID 0000.0001) %MON dynstat_salt_max             =   3.0000000000000E+01
(PID.TID 0000.0001) %MON dynstat_salt_min             =   3.0000000000000E+01
(PID.TID 0000.0001) %MON dynstat_salt_mean            =   3.0000000000000E+01
(PID.TID 0000.0001) %MON dynstat_salt_sd              =   0.0000000000000E+00
(PID.TID 0000.0001) %MON dynstat_salt_del2            =   0.0000000000000E+00
(PID.TID 0000.0001) %MON trAdv_CFL_u_max              =   3.4383762807520E-08
(PID.TID 0000.0001) %MON trAdv_CFL_v_max              =   3.5553499417299E-08
(PID.TID 0000.0001) %MON trAdv_CFL_w_max              =   2.2150165770363E-14
(PID.TID 0000.0001) %MON advcfl_uvel_max              =   3.4303699374093E-08
(PID.TID 0000.0001) %MON advcfl_vvel_max              =   3.5459223976243E-08
(PID.TID 0000.0001) %MON advcfl_wvel_max              =   6.2652938210306E-14
(PID.TID 0000.0001) %MON advcfl_W_hf_max              =   0.0000000000000E+00
(PID.TID 0000.0001) %MON pe_b_mean                    =   5.0751362782125E-20
(PID.TID 0000.0001) %MON ke_max                       =   5.8395059064052E-16
(PID.TID 0000.0001) %MON ke_mean                      =   6.9920275601778E-17
(PID.TID 0000.0001) %MON ke_vol                       =   7.5645000000000E+15
(PID.TID 0000.0001) %MON vort_r_min                   =  -1.3114990256427E-12
(PID.TID 0000.0001) %MON vort_r_max                   =   1.7861502702990E-12
(PID.TID 0000.0001) %MON vort_a_mean                  =   8.2300000000000E-05
(PID.TID 0000.0001) %MON vort_a_sd                    =   7.1297555115587E-06
(PID.TID 0000.0001) %MON vort_p_mean                  =   8.3303658536586E-05
(PID.TID 0000.0001) %MON vort_p_sd                    =   1.7411470234525E-05
(PID.TID 0000.0001) %MON surfExpan_theta_mean         =   9.0174605342483E-27
(PID.TID 0000.0001) %MON surfExpan_salt_mean          =   1.3558099089290E-26
(PID.TID 0000.0001) // =======================================================
(PID.TID 0000.0001) // End MONITOR dynamic field statistics
(PID.TID 0000.0001) // =======================================================
 cg2d: Sum(rhs),rhsMax =  -1.01194859067113E-03  4.02273354803242E-09
 cg2d: Sum(rhs),rhsMax =  -1.01556182347971E-03  4.00842913274574E-09
 cg2d: Sum(rhs),rhsMax =  -1.01919087468729E-03  3.99416475520220E-09
 cg2d: Sum(rhs),rhsMax =  -1.02283550905488E-03  3.97994169270686E-09
 cg2d: Sum(rhs),rhsMax =  -1.02649548259928E-03  3.96576121390270E-09
 cg2d: Sum(rhs),rhsMax =  -1.03017057052869E-03  3.95162457848188E-09
 cg2d: Sum(rhs),rhsMax =  -1.03386053100027E-03  3.93753303678155E-09
 cg2d: Sum(rhs),rhsMax =  -1.03756516815155E-03  3.92348782950195E-09
 cg2d: Sum(rhs),rhsMax =  -1.04128430843753E-03  3.90949018731113E-09
 cg2d: Sum(rhs),rhsMax =  -1.04501783645129E-03  3.89554133057079E-09
 cg2d: Sum(rhs),rhsMax =  -1.04876578414377E-03  3.88164246895016E-09
 cg2d: Sum(rhs),rhsMax =  -1.05252844708157E-03  3.86779480115962E-09
 cg2d: Sum(rhs),rhsMax =  -1.05630688590382E-03  3.85399951457304E-09
 cg2d: Sum(rhs),rhsMax =  -1.06010490382806E-03  3.84025778497084E-09
 cg2d: Sum(rhs),rhsMax =  -1.06559369281092E-03  3.82657077785395E-09
 cg2d: Sum(rhs),rhsMax =  -1.06769286640307E-03  3.81293963713540E-09
(PID.TID 0000.0001)      cg2d_init_res =   2.52464554476642E-01
(PID.TID 0000.0001)      cg2d_iters(min,last) =      -1     537
(PID.TID 0000.0001)      cg2d_last_res =   9.69671784321783E-08
(PID.TID 0000.0001) // =======================================================
(PID.TID 0000.0001) // Begin MONITOR dynamic field statistics
(PID.TID 0000.0001) // =======================================================
(PID.TID 0000.0001) %MON time_tsnumber                =                   448
(PID.TID 0000.0001) %MON time_secondsf                =   2.4192000000000E+06
(PID.TID 0000.0001) %MON dynstat_eta_max              =   1.8667743021724E-08
(PID.TID 0000.0001) %MON dynstat_eta_min              =  -2.2933041022480E-08
(PID.TID 0000.0001) %MON dynstat_eta_mean             =   3.9232524336065E-13
(PID.TID 0000.0001) %MON dynstat_eta_sd               =   7.0661644623921E-09
(PID.TID 0000.0001) %MON dynstat_eta_del2             =   2.6276462686682E-13
(PID.TID 0000.0001) %MON dynstat_uvel_max             =   2.8396328890925E-08
(PID.TID 0000.0001) %MON dynstat_uvel_min             =  -3.0519410750040E-08
(PID.TID 0000.0001) %MON dynstat_uvel_mean            =   3.2320847828898E-13
(PID.TID 0000.0001) %MON dynstat_uvel_sd              =   8.1873490908577E-09
(PID.TID 0000.0001) %MON dynstat_uvel_del2            =   1.0144204592134E-12
(PID.TID 0000.0001) %MON dynstat_vvel_max             =   3.1413137832238E-08
(PID.TID 0000.0001) %MON dynstat_vvel_min             =  -2.5422903330480E-08
(PID.TID 0000.0001) %MON dynstat_vvel_mean            =  -1.2835526340535E-13
(PID.TID 0000.0001) %MON dynstat_vvel_sd              =   8.0274297455767E-09
(PID.TID 0000.0001) %MON dynstat_vvel_del2            =   1.0014832506223E-12
(PID.TID 0000.0001) %MON dynstat_wvel_max             =   2.1334726216793E-14
(PID.TID 0000.0001) %MON dynstat_wvel_min             =  -2.8819101824951E-14
(PID.TID 0000.0001) %MON dynstat_wvel_mean            =   6.0375689452223E-28
(PID.TID 0000.0001) %MON dynstat_wvel_sd              =   1.0455771301083E-14
(PID.TID 0000.0001) %MON dynstat_wvel_del2            =   2.6217097704211E-19
(PID.TID 0000.0001) %MON dynstat_theta_max            =   2.0000000000000E+01
(PID.TID 0000.0001) %MON dynstat_theta_min            =   2.0000000000000E+01
(PID.TID 0000.0001) %MON dynstat_theta_mean           =   2.0000000000000E+01
(PID.TID 0000.0001) %MON dynstat_theta_sd             =   0.0000000000000E+00
(PID.TID 0000.0001) %MON dynstat_theta_del2           =   0.0000000000000E+00
(PID.TID 0000.0001) %MON dynstat_salt_max             =   3.0000000000000E+01
(PID.TID 0000.0001) %MON dynstat_salt_min             =   3.0000000000000E+01
(PID.TID 0000.0001) %MON dynstat_salt_mean            =   3.0000000000000E+01
(PID.TID 0000.0001) %MON dynstat_salt_sd              =   0.0000000000000E+00
(PID.TID 0000.0001) %MON dynstat_salt_del2            =   0.0000000000000E+00
(PID.TID 0000.0001) %MON trAdv_CFL_u_max              =   3.3047802008626E-08
(PID.TID 0000.0001) %MON trAdv_CFL_v_max              =   3.4022892649976E-08
(PID.TID 0000.0001) %MON trAdv_CFL_w_max              =   2.2952284230016E-14
(PID.TID 0000.0001) %MON advcfl_uvel_max              =   3.2960963610043E-08
(PID.TID 0000.0001) %MON advcfl_vvel_max              =   3.3926188858817E-08
(PID.TID 0000.0001) %MON advcfl_wvel_max              =   6.2249259941893E-14
(PID.TID 0000.0001) %MON advcfl_W_hf_max              =   0.0000000000000E+00
(PID.TID 0000.0001) %MON pe_b_mean                    =   4.8981997436586E-20
(PID.TID 0000.0001) %MON ke_max                       =   5.3738514767331E-16
(PID.TID 0000.0001) %MON ke_mean                      =   6.5468936638792E-17
(PID.TID 0000.0001) %MON ke_vol                       =   7.5645000000000E+15
(PID.TID 0000.0001) %MON vort_r_min                   =  -1.2151056058780E-12
(PID.TID 0000.0001) %MON vort_r_max                   =   1.6921228216177E-12
(PID.TID 0000.0001) %MON vort_a_mean                  =   8.2300000000001E-05
(PID.TID 0000.0001) %MON vort_a_sd                    =   7.1297555115560E-06
(PID.TID 0000.0001) %MON vort_p_mean                  =   8.3303658536586E-05
(PID.TID 0000.0001) %MON vort_p_sd                    =   1.7411470233673E-05
(PID.TID 0000.0001) %MON surfExpan_theta_mean         =   1.2138080112055E-26
(PID.TID 0000.0001) %MON surfExpan_salt_mean          =   1.8101595169802E-26
(PID.TID 0000.0001) // =======================================================
(PID.TID 0000.0001) // End MONITOR dynamic field statistics
(PID.TID 0000.0001) // =======================================================
 cg2d: Sum(rhs),rhsMax =  -1.07148939081730E-03  3.79936550945284E-09
 cg2d: Sum(rhs),rhsMax =  -1.07530390699334E-03  3.78584952563186E-09
 cg2d: Sum(rhs),rhsMax =  -1.07913195946667E-03  3.77239278900335E-09
 cg2d: Sum(rhs),rhsMax =  -1.08297179141528E-03  3.75899640275249E-09
 cg2d: Sum(rhs),rhsMax =  -1.08682239277213E-03  3.74566145323371E-09
 cg2d: Sum(rhs),rhsMax =  -1.09068302729926E-03  3.73238901166934E-09
 cg2d: Sum(rhs),rhsMax =  -1.09455308443491E-03  3.71918013647567E-09
 cg2d: Sum(rhs),rhsMax =  -1.09843202616071E-03  3.70603587015900E-09
 cg2d: Sum(rhs),rhsMax =  -1.10231934365750E-03  3.69295724177975E-09
 cg2d: Sum(rhs),rhsMax =  -1.10621454100010E-03  3.67994526397724E-09
 cg2d: Sum(rhs),rhsMax =  -1.11011714223221E-03  3.66700093558900E-09
 cg2d: Sum(rhs),rhsMax =  -1.11402667000571E-03  3.65412523828268E-09
 cg2d: Sum(rhs),rhsMax =  -1.11794265332120E-03  3.64131913945133E-09
 cg2d: Sum(rhs),rhsMax =  -1.12186462141437E-03  3.62858358908968E-09
 cg2d: Sum(rhs),rhsMax =  -1.12579208851039E-03  3.61591952219650E-09
 cg2d: Sum(rhs),rhsMax =  -1.12972457590036E-03  3.60332785599044E-09
(PID.TID 0000.0001)      cg2d_init_res =   2.44980571359976E-01
(PID.TID 0000.0001)      cg2d_iters(min,last) =      -1     537
(PID.TID 0000.0001)      cg2d_last_res =   9.34119676483732E-08
(PID.TID 0000.0001) // =======================================================
(PID.TID 0000.0001) // Begin MONITOR dynamic field statistics
(PID.TID 0000.0001) // =======================================================
(PID.TID 0000.0001) %MON time_tsnumber                =                   464
(PID.TID 0000.0001) %MON time_secondsf                =   2.5056000000000E+06
(PID.TID 0000.0001) %MON dynstat_eta_max              =   1.7564976096098E-08
(PID.TID 0000.0001) %MON dynstat_eta_min              =  -2.2162881975791E-08
(PID.TID 0000.0001) %MON dynstat_eta_mean             =   3.9230433299876E-13
(PID.TID 0000.0001) %MON dynstat_eta_sd               =   6.9742782375889E-09
(PID.TID 0000.0001) %MON dynstat_eta_del2             =   2.4759538276663E-13
(PID.TID 0000.0001) %MON dynstat_uvel_max             =   2.7242060699256E-08
(PID.TID 0000.0001) %MON dynstat_uvel_min             =  -2.9255338102753E-08
(PID.TID 0000.0001) %MON dynstat_uvel_mean            =   2.5534272473731E-13
(PID.TID 0000.0001) %MON dynstat_uvel_sd              =   7.9295695483696E-09
(PID.TID 0000.0001) %MON dynstat_uvel_del2            =   9.3190515346816E-13
(PID.TID 0000.0001) %MON dynstat_vvel_max             =   2.9981007289636E-08
(PID.TID 0000.0001) %MON dynstat_vvel_min             =  -2.3786430777005E-08
(PID.TID 0000.0001) %MON dynstat_vvel_mean            =  -1.3770292083719E-13
(PID.TID 0000.0001) %MON dynstat_vvel_sd              =   7.7911724440769E-09
(PID.TID 0000.0001) %MON dynstat_vvel_del2            =   9.2385025695647E-13
(PID.TID 0000.0001) %MON dynstat_wvel_max             =   2.2227871037117E-14
(PID.TID 0000.0001) %MON dynstat_wvel_min             =  -2.8089173063073E-14
(PID.TID 0000.0001) %MON dynstat_wvel_mean            =   1.0774027077406E-29
(PID.TID 0000.0001) %MON dynstat_wvel_sd              =   1.0221239163005E-14
(PID.TID 0000.0001) %MON dynstat_wvel_del2            =   2.4023378661120E-19
(PID.TID 0000.0001) %MON dynstat_theta_max            =   2.0000000000000E+01
(PID.TID 0000.0001) %MON dynstat_theta_min            =   2.0000000000000E+01
(PID.TID 0000.0001) %MON dynstat_theta_mean           =   2.0000000000000E+01
(PID.TID 0000.0001) %MON dynstat_theta_sd             =   0.0000000000000E+00
(PID.TID 0000.0001) %MON dynstat_theta_del2           =   0.0000000000000E+00
(PID.TID 0000.0001) %MON dynstat_salt_max             =   3.0000000000000E+01
(PID.TID 0000.0001) %MON dynstat_salt_min             =   3.0000000000000E+01
(PID.TID 0000.0001) %MON dynstat_salt_mean            =   3.0000000000000E+01
(PID.TID 0000.0001) %MON dynstat_salt_sd              =   0.0000000000000E+00
(PID.TID 0000.0001) %MON dynstat_salt_del2            =   0.0000000000000E+00
(PID.TID 0000.0001) %MON trAdv_CFL_u_max              =   3.1677594750296E-08
(PID.TID 0000.0001) %MON trAdv_CFL_v_max              =   3.2475679774360E-08
(PID.TID 0000.0001) %MON trAdv_CFL_w_max              =   2.3966157927813E-14
(PID.TID 0000.0001) %MON advcfl_uvel_max              =   3.1595765150974E-08
(PID.TID 0000.0001) %MON advcfl_vvel_max              =   3.2379487872807E-08
(PID.TID 0000.0001) %MON advcfl_wvel_max              =   6.0672613816237E-14
(PID.TID 0000.0001) %MON advcfl_W_hf_max              =   0.0000000000000E+00
(PID.TID 0000.0001) %MON pe_b_mean                    =   4.7716386504515E-20
(PID.TID 0000.0001) %MON ke_max                       =   4.9158248357034E-16
(PID.TID 0000.0001) %MON ke_mean                      =   6.1539040921107E-17
(PID.TID 0000.0001) %MON ke_vol                       =   7.5645000000000E+15
(PID.TID 0000.0001) %MON vort_r_min                   =  -1.1255535671335E-12
(PID.TID 0000.0001) %MON vort_r_max                   =   1.6023392554029E-12
(PID.TID 0000.0001) %MON vort_a_mean                  =   8.2299999999999E-05
(PID.TID 0000.0001) %MON vort_a_sd                    =   7.1297555115671E-06
(PID.TID 0000.0001) %MON vort_p_mean                  =   8.3303658536585E-05
(PID.TID 0000.0001) %MON vort_p_sd                    =   1.7411470232908E-05
(PID.TID 0000.0001) %MON surfExpan_theta_mean         =   6.4135549888684E-28
(PID.TID 0000.0001) %MON surfExpan_salt_mean          =   7.6700011908052E-28
(PID.TID 0000.0001) // =======================================================
(PID.TID 0000.0001) // End MONITOR dynamic field statistics
(PID.TID 0000.0001) // =======================================================
 cg2d: Sum(rhs),rhsMax =  -1.13366160731220E-03  3.59080949223147E-09
 cg2d: Sum(rhs),rhsMax =  -1.13760243350763E-03  3.57836531403632E-09
 cg2d: Sum(rhs),rhsMax =  -1.14154684688753E-03  3.56599618969747E-09
 cg2d: Sum(rhs),rhsMax =  -1.14549433547032E-03  3.55370296837503E-09
 cg2d: Sum(rhs),rhsMax =  -1.14944440796635E-03  3.54148648206849E-09
 cg2d: Sum(rhs),rhsMax =  -1.15339655860849E-03  3.52934754502625E-09
 cg2d: Sum(rhs),rhsMax =  -1.15735028000473E-03  3.51728695356902E-09
 cg2d: Sum(rhs),rhsMax =  -1.16130505710009E-03  3.50530548583277E-09
 cg2d: Sum(rhs),rhsMax =  -1.16526037878109E-03  3.49340390161545E-09
 cg2d: Sum(rhs),rhsMax =  -1.16921572382809E-03  3.48158294218205E-09
 cg2d: Sum(rhs),rhsMax =  -1.17317056544283E-03  3.46984333010102E-09
 cg2d: Sum(rhs),rhsMax =  -1.17712437302371E-03  3.45818576911372E-09
 cg2d: Sum(rhs),rhsMax =  -1.18107662280318E-03  3.44661094392709E-09
 cg2d: Sum(rhs),rhsMax =  -1.18502677653743E-03  3.43511952004679E-09
 cg2d: Sum(rhs),rhsMax =  -1.18897413059716E-03  3.42371214448122E-09
 cg2d: Sum(rhs),rhsMax =  -1.19291831484580E-03  3.41238944228578E-09
(PID.TID 0000.0001)      cg2d_init_res =   2.38230792973283E-01
(PID.TID 0000.0001)      cg2d_iters(min,last) =      -1     535
(PID.TID 0000.0001)      cg2d_last_res =   9.89111095727406E-08
(PID.TID 0000.0001) // =======================================================
(PID.TID 0000.0001) // Begin MONITOR dynamic field statistics
(PID.TID 0000.0001) // =======================================================
(PID.TID 0000.0001) %MON time_tsnumber                =                   480
(PID.TID 0000.0001) %MON time_secondsf                =   2.5920000000000E+06
(PID.TID 0000.0001) %MON dynstat_eta_max              =   1.6418133597396E-08
(PID.TID 0000.0001) %MON dynstat_eta_min              =  -2.1456215259153E-08
(PID.TID 0000.0001) %MON dynstat_eta_mean             =   3.9229814950696E-13
(PID.TID 0000.0001) %MON dynstat_eta_sd               =   6.9086233663679E-09
(PID.TID 0000.0001) %MON dynstat_eta_del2             =   2.3405128627149E-13
(PID.TID 0000.0001) %MON dynstat_uvel_max             =   2.6091948854743E-08
(PID.TID 0000.0001) %MON dynstat_uvel_min             =  -2.8066472034562E-08
(PID.TID 0000.0001) %MON dynstat_uvel_mean            =   1.7528980095073E-13
(PID.TID 0000.0001) %MON dynstat_uvel_sd              =   7.6955879161508E-09
(PID.TID 0000.0001) %MON dynstat_uvel_del2            =   8.5940847916051E-13
(PID.TID 0000.0001) %MON dynstat_vvel_max             =   2.8578161037434E-08
(PID.TID 0000.0001) %MON dynstat_vvel_min             =  -2.3130004259306E-08
(PID.TID 0000.0001) %MON dynstat_vvel_mean            =  -1.4387594054367E-13
(PID.TID 0000.0001) %MON dynstat_vvel_sd              =   7.5725428637935E-09
(PID.TID 0000.0001) %MON dynstat_vvel_del2            =   8.5688559660962E-13
(PID.TID 0000.0001) %MON dynstat_wvel_max             =   2.2465313177511E-14
(PID.TID 0000.0001) %MON dynstat_wvel_min             =  -2.6877118393109E-14
(PID.TID 0000.0001) %MON dynstat_wvel_mean            =   6.5429354448246E-28
(PID.TID 0000.0001) %MON dynstat_wvel_sd              =   1.0028098150882E-14
(PID.TID 0000.0001) %MON dynstat_wvel_del2            =   2.2126866721286E-19
(PID.TID 0000.0001) %MON dynstat_theta_max            =   2.0000000000000E+01
(PID.TID 0000.0001) %MON dynstat_theta_min            =   2.0000000000000E+01
(PID.TID 0000.0001) %MON dynstat_theta_mean           =   2.0000000000000E+01
(PID.TID 0000.0001) %MON dynstat_theta_sd             =   0.0000000000000E+00
(PID.TID 0000.0001) %MON dynstat_theta_del2           =   0.0000000000000E+00
(PID.TID 0000.0001) %MON dynstat_salt_max             =   3.0000000000000E+01
(PID.TID 0000.0001) %MON dynstat_salt_min             =   3.0000000000000E+01
(PID.TID 0000.0001) %MON dynstat_salt_mean            =   3.0000000000000E+01
(PID.TID 0000.0001) %MON dynstat_salt_sd              =   0.0000000000000E+00
(PID.TID 0000.0001) %MON dynstat_salt_del2            =   0.0000000000000E+00
(PID.TID 0000.0001) %MON trAdv_CFL_u_max              =   3.0391807340083E-08
(PID.TID 0000.0001) %MON trAdv_CFL_v_max              =   3.0957385604929E-08
(PID.TID 0000.0001) %MON trAdv_CFL_w_max              =   2.4265796681622E-14
(PID.TID 0000.0001) %MON advcfl_uvel_max              =   3.0311789797327E-08
(PID.TID 0000.0001) %MON advcfl_vvel_max              =   3.0864413920428E-08
(PID.TID 0000.0001) %MON advcfl_wvel_max              =   5.8054575729116E-14
(PID.TID 0000.0001) %MON advcfl_W_hf_max              =   0.0000000000000E+00
(PID.TID 0000.0001) %MON pe_b_mean                    =   4.6822224509750E-20
(PID.TID 0000.0001) %MON ke_max                       =   4.4725515591850E-16
(PID.TID 0000.0001) %MON ke_mean                      =   5.8045817720330E-17
(PID.TID 0000.0001) %MON ke_vol                       =   7.5645000000000E+15
(PID.TID 0000.0001) %MON vort_r_min                   =  -1.0439375873998E-12
(PID.TID 0000.0001) %MON vort_r_max                   =   1.5187817925415E-12
(PID.TID 0000.0001) %MON vort_a_mean                  =   8.2299999999999E-05
(PID.TID 0000.0001) %MON vort_a_sd                    =   7.1297555115677E-06
(PID.TID 0000.0001) %MON vort_p_mean                  =   8.3303658536585E-05
(PID.TID 0000.0001) %MON vort_p_sd                    =   1.7411470232207E-05
(PID.TID 0000.0001) %MON surfExpan_theta_mean         =   1.3426900591803E-26
(PID.TID 0000.0001) %MON surfExpan_salt_mean          =   2.0241360994342E-26
(PID.TID 0000.0001) // =======================================================
(PID.TID 0000.0001) // End MONITOR dynamic field statistics
(PID.TID 0000.0001) // =======================================================
 cg2d: Sum(rhs),rhsMax =  -1.19685879255896E-03  3.40115202152448E-09
 cg2d: Sum(rhs),rhsMax =  -1.20079501410157E-03  3.39000046891710E-09
 cg2d: Sum(rhs),rhsMax =  -1.20472643903879E-03  3.37893535278699E-09
 cg2d: Sum(rhs),rhsMax =  -1.20865251343861E-03  3.36795721975754E-09
 cg2d: Sum(rhs),rhsMax =  -1.21257268369551E-03  3.35706659793884E-09
 cg2d: Sum(rhs),rhsMax =  -1.21648640208709E-03  3.34626399361611E-09
 cg2d: Sum(rhs),rhsMax =  -1.22039311551784E-03  3.33554989431616E-09
 cg2d: Sum(rhs),rhsMax =  -1.22429227438585E-03  3.32492476551660E-09
 cg2d: Sum(rhs),rhsMax =  -1.22818332126534E-03  3.31438905377633E-09
 cg2d: Sum(rhs),rhsMax =  -1.23206569860191E-03  3.30394318336106E-09
 cg2d: Sum(rhs),rhsMax =  -1.23593885674062E-03  3.29358755950783E-09
 cg2d: Sum(rhs),rhsMax =  -1.23980224481970E-03  3.28332256492228E-09
 cg2d: Sum(rhs),rhsMax =  -1.24365530772868E-03  3.27314856320190E-09
 cg2d: Sum(rhs),rhsMax =  -1.24749748881615E-03  3.26306589519374E-09
 cg2d: Sum(rhs),rhsMax =  -1.25132825224433E-03  3.25307488257774E-09
 cg2d: Sum(rhs),rhsMax =  -1.25514703462751E-03  3.24317582409175E-09
(PID.TID 0000.0001)      cg2d_init_res =   2.31704098839225E-01
(PID.TID 0000.0001)      cg2d_iters(min,last) =      -1     535
(PID.TID 0000.0001)      cg2d_last_res =   9.35768207132186E-08
(PID.TID 0000.0001) // =======================================================
(PID.TID 0000.0001) // Begin MONITOR dynamic field statistics
(PID.TID 0000.0001) // =======================================================
(PID.TID 0000.0001) %MON time_tsnumber                =                   496
(PID.TID 0000.0001) %MON time_secondsf                =   2.6784000000000E+06
(PID.TID 0000.0001) %MON dynstat_eta_max              =   1.6317287824054E-08
(PID.TID 0000.0001) %MON dynstat_eta_min              =  -2.0819539597338E-08
(PID.TID 0000.0001) %MON dynstat_eta_mean             =   3.9229447688707E-13
(PID.TID 0000.0001) %MON dynstat_eta_sd               =   6.8602839397920E-09
(PID.TID 0000.0001) %MON dynstat_eta_del2             =   2.2193540654635E-13
(PID.TID 0000.0001) %MON dynstat_uvel_max             =   2.4949579073600E-08
(PID.TID 0000.0001) %MON dynstat_uvel_min             =  -2.6885938744018E-08
(PID.TID 0000.0001) %MON dynstat_uvel_mean            =   8.8144487927840E-14
(PID.TID 0000.0001) %MON dynstat_uvel_sd              =   7.4824369373903E-09
(PID.TID 0000.0001) %MON dynstat_uvel_del2            =   7.9556713187853E-13
(PID.TID 0000.0001) %MON dynstat_vvel_max             =   2.7241865414302E-08
(PID.TID 0000.0001) %MON dynstat_vvel_min             =  -2.2641102336299E-08
(PID.TID 0000.0001) %MON dynstat_vvel_mean            =  -1.4677626104380E-13
(PID.TID 0000.0001) %MON dynstat_vvel_sd              =   7.3689413717568E-09
(PID.TID 0000.0001) %MON dynstat_vvel_del2            =   7.9938077861082E-13
(PID.TID 0000.0001) %MON dynstat_wvel_max             =   2.2032752681200E-14
(PID.TID 0000.0001) %MON dynstat_wvel_min             =  -2.5777841083929E-14
(PID.TID 0000.0001) %MON dynstat_wvel_mean            =   9.3416418586419E-28
(PID.TID 0000.0001) %MON dynstat_wvel_sd              =   9.8884470959242E-15
(PID.TID 0000.0001) %MON dynstat_wvel_del2            =   2.0464231313648E-19
(PID.TID 0000.0001) %MON dynstat_theta_max            =   2.0000000000000E+01
(PID.TID 0000.0001) %MON dynstat_theta_min            =   2.0000000000000E+01
(PID.TID 0000.0001) %MON dynstat_theta_mean           =   2.0000000000000E+01
(PID.TID 0000.0001) %MON dynstat_theta_sd             =   0.0000000000000E+00
(PID.TID 0000.0001) %MON dynstat_theta_del2           =   0.0000000000000E+00
(PID.TID 0000.0001) %MON dynstat_salt_max             =   3.0000000000000E+01
(PID.TID 0000.0001) %MON dynstat_salt_min             =   3.0000000000000E+01
(PID.TID 0000.0001) %MON dynstat_salt_mean            =   3.0000000000000E+01
(PID.TID 0000.0001) %MON dynstat_salt_sd              =   0.0000000000000E+00
(PID.TID 0000.0001) %MON dynstat_salt_del2            =   0.0000000000000E+00
(PID.TID 0000.0001) %MON trAdv_CFL_u_max              =   2.9115762048223E-08
(PID.TID 0000.0001) %MON trAdv_CFL_v_max              =   2.9508642485067E-08
(PID.TID 0000.0001) %MON trAdv_CFL_w_max              =   2.3841135084135E-14
(PID.TID 0000.0001) %MON advcfl_uvel_max              =   2.9036813843539E-08
(PID.TID 0000.0001) %MON advcfl_vvel_max              =   2.9421214647446E-08
(PID.TID 0000.0001) %MON advcfl_wvel_max              =   5.5680136741287E-14
(PID.TID 0000.0001) %MON advcfl_W_hf_max              =   0.0000000000000E+00
(PID.TID 0000.0001) %MON pe_b_mean                    =   4.6169289466582E-20
(PID.TID 0000.0001) %MON ke_max                       =   4.0493112254402E-16
(PID.TID 0000.0001) %MON ke_mean                      =   5.4919916820067E-17
(PID.TID 0000.0001) %MON ke_vol                       =   7.5645000000000E+15
(PID.TID 0000.0001) %MON vort_r_min                   =  -9.9580551184886E-13
(PID.TID 0000.0001) %MON vort_r_max                   =   1.4430440799996E-12
(PID.TID 0000.0001) %MON vort_a_mean                  =   8.2300000000000E-05
(PID.TID 0000.0001) %MON vort_a_sd                    =   7.1297555115567E-06
(PID.TID 0000.0001) %MON vort_p_mean                  =   8.3303658536586E-05
(PID.TID 0000.0001) %MON vort_p_sd                    =   1.7411470231562E-05
(PID.TID 0000.0001) %MON surfExpan_theta_mean         =   1.9051597851690E-26
(PID.TID 0000.0001) %MON surfExpan_salt_mean          =   2.8619436575236E-26
(PID.TID 0000.0001) // =======================================================
(PID.TID 0000.0001) // End MONITOR dynamic field statistics
(PID.TID 0000.0001) // =======================================================
 cg2d: Sum(rhs),rhsMax =  -1.25895330705429E-03  3.23336899926105E-09
 cg2d: Sum(rhs),rhsMax =  -1.26274651377939E-03  3.22365466450998E-09
 cg2d: Sum(rhs),rhsMax =  -1.26652611055259E-03  3.21403305701514E-09
 cg2d: Sum(rhs),rhsMax =  -1.27029157694860E-03  3.20450439072760E-09
 cg2d: Sum(rhs),rhsMax =  -1.27404236137675E-03  3.19506886032459E-09
 cg2d: Sum(rhs),rhsMax =  -1.27777794540789E-03  3.18572663716775E-09
 cg2d: Sum(rhs),rhsMax =  -1.28149780002993E-03  3.17647787333001E-09
 cg2d: Sum(rhs),rhsMax =  -1.28520140155003E-03  3.16732269750877E-09
 cg2d: Sum(rhs),rhsMax =  -1.28888823199416E-03  3.15826121911342E-09
 cg2d: Sum(rhs),rhsMax =  -1.29255778666450E-03  3.14929352414381E-09
 cg2d: Sum(rhs),rhsMax =  -1.29620955794841E-03  3.14041967933281E-09
 cg2d: Sum(rhs),rhsMax =  -1.29984304593464E-03  3.13163972798991E-09
 cg2d: Sum(rhs),rhsMax =  -1.30345775080310E-03  3.12295369420416E-09
 cg2d: Sum(rhs),rhsMax =  -1.30705319901758E-03  3.11436157864311E-09
 cg2d: Sum(rhs),rhsMax =  -1.31062889930403E-03  3.10586336282949E-09
 cg2d: Sum(rhs),rhsMax =  -1.31418438555955E-03  3.09745900487862E-09
(PID.TID 0000.0001)      cg2d_init_res =   2.25012013242062E-01
(PID.TID 0000.0001)      cg2d_iters(min,last) =      -1     535
(PID.TID 0000.0001)      cg2d_last_res =   9.65415350287183E-08
(PID.TID 0000.0001) // =======================================================
(PID.TID 0000.0001) // Begin MONITOR dynamic field statistics
(PID.TID 0000.0001) // =======================================================
(PID.TID 0000.0001) %MON time_tsnumber                =                   512
(PID.TID 0000.0001) %MON time_secondsf                =   2.7648000000000E+06
(PID.TID 0000.0001) %MON dynstat_eta_max              =   1.6951829035792E-08
(PID.TID 0000.0001) %MON dynstat_eta_min              =  -2.0275805602374E-08
(PID.TID 0000.0001) %MON dynstat_eta_mean             =   3.9229154913713E-13
(PID.TID 0000.0001) %MON dynstat_eta_sd               =   6.8209308481563E-09
(PID.TID 0000.0001) %MON dynstat_eta_del2             =   2.1108396956623E-13
(PID.TID 0000.0001) %MON dynstat_uvel_max             =   2.3815724334366E-08
(PID.TID 0000.0001) %MON dynstat_uvel_min             =  -2.5753288981523E-08
(PID.TID 0000.0001) %MON dynstat_uvel_mean            =  -7.0271396102014E-16
(PID.TID 0000.0001) %MON dynstat_uvel_sd              =   7.2873819960437E-09
(PID.TID 0000.0001) %MON dynstat_uvel_del2            =   7.3919699653789E-13
(PID.TID 0000.0001) %MON dynstat_vvel_max             =   2.6002683453597E-08
(PID.TID 0000.0001) %MON dynstat_vvel_min             =  -2.2079160717754E-08
(PID.TID 0000.0001) %MON dynstat_vvel_mean            =  -1.4640869880050E-13
(PID.TID 0000.0001) %MON dynstat_vvel_sd              =   7.1782907583931E-09
(PID.TID 0000.0001) %MON dynstat_vvel_del2            =   7.5021736291392E-13
(PID.TID 0000.0001) %MON dynstat_wvel_max             =   2.2062837243819E-14
(PID.TID 0000.0001) %MON dynstat_wvel_min             =  -2.4401066727187E-14
(PID.TID 0000.0001) %MON dynstat_wvel_mean            =   6.8225685205906E-28
(PID.TID 0000.0001) %MON dynstat_wvel_sd              =   9.8069656546884E-15
(PID.TID 0000.0001) %MON dynstat_wvel_del2            =   1.9005501978780E-19
(PID.TID 0000.0001) %MON dynstat_theta_max            =   2.0000000000000E+01
(PID.TID 0000.0001) %MON dynstat_theta_min            =   2.0000000000000E+01
(PID.TID 0000.0001) %MON dynstat_theta_mean           =   2.0000000000000E+01
(PID.TID 0000.0001) %MON dynstat_theta_sd             =   0.0000000000000E+00
(PID.TID 0000.0001) %MON dynstat_theta_del2           =   0.0000000000000E+00
(PID.TID 0000.0001) %MON dynstat_salt_max             =   3.0000000000000E+01
(PID.TID 0000.0001) %MON dynstat_salt_min             =   3.0000000000000E+01
(PID.TID 0000.0001) %MON dynstat_salt_mean            =   3.0000000000000E+01
(PID.TID 0000.0001) %MON dynstat_salt_sd              =   0.0000000000000E+00
(PID.TID 0000.0001) %MON dynstat_salt_del2            =   0.0000000000000E+00
(PID.TID 0000.0001) %MON trAdv_CFL_u_max              =   2.7885666549526E-08
(PID.TID 0000.0001) %MON trAdv_CFL_v_max              =   2.8162965510153E-08
(PID.TID 0000.0001) %MON trAdv_CFL_w_max              =   2.3735477246856E-14
(PID.TID 0000.0001) %MON advcfl_uvel_max              =   2.7813552100045E-08
(PID.TID 0000.0001) %MON advcfl_vvel_max              =   2.8082898129885E-08
(PID.TID 0000.0001) %MON advcfl_wvel_max              =   5.2706304130723E-14
(PID.TID 0000.0001) %MON advcfl_W_hf_max              =   0.0000000000000E+00
(PID.TID 0000.0001) %MON pe_b_mean                    =   4.5641120931228E-20
(PID.TID 0000.0001) %MON ke_max                       =   3.6633325620544E-16
(PID.TID 0000.0001) %MON ke_mean                      =   5.2104226980658E-17
(PID.TID 0000.0001) %MON ke_vol                       =   7.5645000000000E+15
(PID.TID 0000.0001) %MON vort_r_min                   =  -9.6418593608923E-13
(PID.TID 0000.0001) %MON vort_r_max                   =   1.3762340206283E-12
(PID.TID 0000.0001) %MON vort_a_mean                  =   8.2300000000001E-05
(PID.TID 0000.0001) %MON vort_a_sd                    =   7.1297555115524E-06
(PID.TID 0000.0001) %MON vort_p_mean                  =   8.3303658536586E-05
(PID.TID 0000.0001) %MON vort_p_sd                    =   1.7411470230968E-05
(PID.TID 0000.0001) %MON surfExpan_theta_mean         =   1.4243527777237E-26
(PID.TID 0000.0001) %MON surfExpan_salt_mean          =   2.1236368425171E-26
(PID.TID 0000.0001) // =======================================================
(PID.TID 0000.0001) // End MONITOR dynamic field statistics
(PID.TID 0000.0001) // =======================================================
 cg2d: Sum(rhs),rhsMax =  -1.31771920086535E-03  3.08914844386833E-09
 cg2d: Sum(rhs),rhsMax =  -1.32123287424044E-03  3.08093159549339E-09
 cg2d: Sum(rhs),rhsMax =  -1.32472496681169E-03  3.07280835655052E-09
 cg2d: Sum(rhs),rhsMax =  -1.32819503666149E-03  3.06477860048847E-09
 cg2d: Sum(rhs),rhsMax =  -1.33164265709536E-03  3.05684218202782E-09
 cg2d: Sum(rhs),rhsMax =  -1.33506751222631E-03  3.04899893182390E-09
 cg2d: Sum(rhs),rhsMax =  -1.33846909694232E-03  3.04124866379692E-09
 cg2d: Sum(rhs),rhsMax =  -1.34184699609986E-03  3.03359116806861E-09
 cg2d: Sum(rhs),rhsMax =  -1.34520082366607E-03  3.02602621466636E-09
 cg2d: Sum(rhs),rhsMax =  -1.34853020067309E-03  3.01855355302589E-09
 cg2d: Sum(rhs),rhsMax =  -1.35183488142704E-03  3.01117291179478E-09
 cg2d: Sum(rhs),rhsMax =  -1.35511438251752E-03  3.00388399963200E-09
 cg2d: Sum(rhs),rhsMax =  -1.35836836931160E-03  2.99668650463206E-09
 cg2d: Sum(rhs),rhsMax =  -1.36159650848208E-03  2.98958009362981E-09
 cg2d: Sum(rhs),rhsMax =  -1.36479859043093E-03  2.98256441422488E-09
 cg2d: Sum(rhs),rhsMax =  -1.36797419807941E-03  2.97563909488034E-09
(PID.TID 0000.0001)      cg2d_init_res =   2.17925406994732E-01
(PID.TID 0000.0001)      cg2d_iters(min,last) =      -1     538
(PID.TID 0000.0001)      cg2d_last_res =   9.62434082736740E-08
(PID.TID 0000.0001) // =======================================================
(PID.TID 0000.0001) // Begin MONITOR dynamic field statistics
(PID.TID 0000.0001) // =======================================================
(PID.TID 0000.0001) %MON time_tsnumber                =                   528
(PID.TID 0000.0001) %MON time_secondsf                =   2.8512000000000E+06
(PID.TID 0000.0001) %MON dynstat_eta_max              =   1.7316164157121E-08
(PID.TID 0000.0001) %MON dynstat_eta_min              =  -1.9800028282113E-08
(PID.TID 0000.0001) %MON dynstat_eta_mean             =   3.9228817469367E-13
(PID.TID 0000.0001) %MON dynstat_eta_sd               =   6.7835921304783E-09
(PID.TID 0000.0001) %MON dynstat_eta_del2             =   2.0135728826677E-13
(PID.TID 0000.0001) %MON dynstat_uvel_max             =   2.2694996042949E-08
(PID.TID 0000.0001) %MON dynstat_uvel_min             =  -2.4726947572972E-08
(PID.TID 0000.0001) %MON dynstat_uvel_mean            =  -8.5873080401906E-14
(PID.TID 0000.0001) %MON dynstat_uvel_sd              =   7.1077408666521E-09
(PID.TID 0000.0001) %MON dynstat_uvel_del2            =   6.8926368235808E-13
(PID.TID 0000.0001) %MON dynstat_vvel_max             =   2.4882940246489E-08
(PID.TID 0000.0001) %MON dynstat_vvel_min             =  -2.1469411953442E-08
(PID.TID 0000.0001) %MON dynstat_vvel_mean            =  -1.4288270687914E-13
(PID.TID 0000.0001) %MON dynstat_vvel_sd              =   6.9991114481160E-09
(PID.TID 0000.0001) %MON dynstat_vvel_del2            =   7.0831001246884E-13
(PID.TID 0000.0001) %MON dynstat_wvel_max             =   2.3111478153481E-14
(PID.TID 0000.0001) %MON dynstat_wvel_min             =  -2.2752717838692E-14
(PID.TID 0000.0001) %MON dynstat_wvel_mean            =  -1.1029561110118E-27
(PID.TID 0000.0001) %MON dynstat_wvel_sd              =   9.7800004912627E-15
(PID.TID 0000.0001) %MON dynstat_wvel_del2            =   1.7712091304205E-19
(PID.TID 0000.0001) %MON dynstat_theta_max            =   2.0000000000000E+01
(PID.TID 0000.0001) %MON dynstat_theta_min            =   2.0000000000000E+01
(PID.TID 0000.0001) %MON dynstat_theta_mean           =   2.0000000000000E+01
(PID.TID 0000.0001) %MON dynstat_theta_sd             =   0.0000000000000E+00
(PID.TID 0000.0001) %MON dynstat_theta_del2           =   0.0000000000000E+00
(PID.TID 0000.0001) %MON dynstat_salt_max             =   3.0000000000000E+01
(PID.TID 0000.0001) %MON dynstat_salt_min             =   3.0000000000000E+01
(PID.TID 0000.0001) %MON dynstat_salt_mean            =   3.0000000000000E+01
(PID.TID 0000.0001) %MON dynstat_salt_sd              =   0.0000000000000E+00
(PID.TID 0000.0001) %MON dynstat_salt_del2            =   0.0000000000000E+00
(PID.TID 0000.0001) %MON trAdv_CFL_u_max              =   2.6771553144111E-08
(PID.TID 0000.0001) %MON trAdv_CFL_v_max              =   2.6945059170192E-08
(PID.TID 0000.0001) %MON trAdv_CFL_w_max              =   2.4899477833573E-14
(PID.TID 0000.0001) %MON advcfl_uvel_max              =   2.6705103378810E-08
(PID.TID 0000.0001) %MON advcfl_vvel_max              =   2.6873575466208E-08
(PID.TID 0000.0001) %MON advcfl_wvel_max              =   4.9920792811520E-14
(PID.TID 0000.0001) %MON advcfl_W_hf_max              =   0.0000000000000E+00
(PID.TID 0000.0001) %MON pe_b_mean                    =   4.5142797021993E-20
(PID.TID 0000.0001) %MON ke_max                       =   3.3010407003623E-16
(PID.TID 0000.0001) %MON ke_mean                      =   4.9551519558966E-17
(PID.TID 0000.0001) %MON ke_vol                       =   7.5645000000000E+15
(PID.TID 0000.0001) %MON vort_r_min                   =  -9.3320024657732E-13
(PID.TID 0000.0001) %MON vort_r_max                   =   1.3189124551499E-12
(PID.TID 0000.0001) %MON vort_a_mean                  =   8.2300000000000E-05
(PID.TID 0000.0001) %MON vort_a_sd                    =   7.1297555115629E-06
(PID.TID 0000.0001) %MON vort_p_mean                  =   8.3303658536585E-05
(PID.TID 0000.0001) %MON vort_p_sd                    =   1.7411470230425E-05
(PID.TID 0000.0001) %MON surfExpan_theta_mean         =  -2.1739744166120E-26
(PID.TID 0000.0001) %MON surfExpan_salt_mean          =  -3.2647974317315E-26
(PID.TID 0000.0001) // =======================================================
(PID.TID 0000.0001) // End MONITOR dynamic field statistics
(PID.TID 0000.0001) // =======================================================
 cg2d: Sum(rhs),rhsMax =  -1.37112303532738E-03  2.96880374242958E-09
 cg2d: Sum(rhs),rhsMax =  -1.37424481635327E-03  2.96205794430697E-09
 cg2d: Sum(rhs),rhsMax =  -1.37733928291873E-03  2.95540126842190E-09
 cg2d: Sum(rhs),rhsMax =  -1.38040628527285E-03  2.94883326256266E-09
 cg2d: Sum(rhs),rhsMax =  -1.38344547322271E-03  2.94235345637895E-09
 cg2d: Sum(rhs),rhsMax =  -1.38645662061465E-03  2.93596135925646E-09
 cg2d: Sum(rhs),rhsMax =  -1.38943951014623E-03  2.92965646082516E-09
 cg2d: Sum(rhs),rhsMax =  -1.39239394349780E-03  2.92343823324492E-09
 cg2d: Sum(rhs),rhsMax =  -1.39531973567813E-03  2.91730612803771E-09
 cg2d: Sum(rhs),rhsMax =  -1.39821671839145E-03  2.91125957988020E-09
 cg2d: Sum(rhs),rhsMax =  -1.40108485770492E-03  2.90529800365925E-09
 cg2d: Sum(rhs),rhsMax =  -1.40392389606706E-03  2.89942079514040E-09
 cg2d: Sum(rhs),rhsMax =  -1.40673370496581E-03  2.89362733392688E-09
 cg2d: Sum(rhs),rhsMax =  -1.40951418438854E-03  2.88791698019091E-09
 cg2d: Sum(rhs),rhsMax =  -1.41226522752122E-03  2.88228907670639E-09
 cg2d: Sum(rhs),rhsMax =  -1.41498675869312E-03  2.87674294845230E-09
(PID.TID 0000.0001)      cg2d_init_res =   2.10398077818935E-01
(PID.TID 0000.0001)      cg2d_iters(min,last) =      -1     540
(PID.TID 0000.0001)      cg2d_last_res =   9.96301531043243E-08
(PID.TID 0000.0001) // =======================================================
(PID.TID 0000.0001) // Begin MONITOR dynamic field statistics
(PID.TID 0000.0001) // =======================================================
(PID.TID 0000.0001) %MON time_tsnumber                =                   544
(PID.TID 0000.0001) %MON time_secondsf                =   2.9376000000000E+06
(PID.TID 0000.0001) %MON dynstat_eta_max              =   1.7374154040908E-08
(PID.TID 0000.0001) %MON dynstat_eta_min              =  -1.9391538799224E-08
(PID.TID 0000.0001) %MON dynstat_eta_mean             =   3.9228377765394E-13
(PID.TID 0000.0001) %MON dynstat_eta_sd               =   6.7430157302401E-09
(PID.TID 0000.0001) %MON dynstat_eta_del2             =   1.9263237549691E-13
(PID.TID 0000.0001) %MON dynstat_uvel_max             =   2.1595597537864E-08
(PID.TID 0000.0001) %MON dynstat_uvel_min             =  -2.3799456328365E-08
(PID.TID 0000.0001) %MON dynstat_uvel_mean            =  -1.6230220559174E-13
(PID.TID 0000.0001) %MON dynstat_uvel_sd              =   6.9408186348200E-09
(PID.TID 0000.0001) %MON dynstat_uvel_del2            =   6.4486831948182E-13
(PID.TID 0000.0001) %MON dynstat_vvel_max             =   2.3896754671896E-08
(PID.TID 0000.0001) %MON dynstat_vvel_min             =  -2.0826012200775E-08
(PID.TID 0000.0001) %MON dynstat_vvel_mean            =  -1.3640903688797E-13
(PID.TID 0000.0001) %MON dynstat_vvel_sd              =   6.8305116892497E-09
(PID.TID 0000.0001) %MON dynstat_vvel_del2            =   6.7257837295347E-13
(PID.TID 0000.0001) %MON dynstat_wvel_max             =   2.4625383567844E-14
(PID.TID 0000.0001) %MON dynstat_wvel_min             =  -2.0911718676686E-14
(PID.TID 0000.0001) %MON dynstat_wvel_mean            =   8.2875080759126E-28
(PID.TID 0000.0001) %MON dynstat_wvel_sd              =   9.7966407996930E-15
(PID.TID 0000.0001) %MON dynstat_wvel_del2            =   1.6557699962931E-19
(PID.TID 0000.0001) %MON dynstat_theta_max            =   2.0000000000000E+01
(PID.TID 0000.0001) %MON dynstat_theta_min            =   2.0000000000000E+01
(PID.TID 0000.0001) %MON dynstat_theta_mean           =   2.0000000000000E+01
(PID.TID 0000.0001) %MON dynstat_theta_sd             =   0.0000000000000E+00
(PID.TID 0000.0001) %MON dynstat_theta_del2           =   0.0000000000000E+00
(PID.TID 0000.0001) %MON dynstat_salt_max             =   3.0000000000000E+01
(PID.TID 0000.0001) %MON dynstat_salt_min             =   3.0000000000000E+01
(PID.TID 0000.0001) %MON dynstat_salt_mean            =   3.0000000000000E+01
(PID.TID 0000.0001) %MON dynstat_salt_sd              =   0.0000000000000E+00
(PID.TID 0000.0001) %MON dynstat_salt_del2            =   0.0000000000000E+00
(PID.TID 0000.0001) %MON trAdv_CFL_u_max              =   2.5762388644882E-08
(PID.TID 0000.0001) %MON trAdv_CFL_v_max              =   2.5870117209297E-08
(PID.TID 0000.0001) %MON trAdv_CFL_w_max              =   2.6505199368110E-14
(PID.TID 0000.0001) %MON advcfl_uvel_max              =   2.5703412834634E-08
(PID.TID 0000.0001) %MON advcfl_vvel_max              =   2.5808495045648E-08
(PID.TID 0000.0001) %MON advcfl_wvel_max              =   5.3190828506544E-14
(PID.TID 0000.0001) %MON advcfl_W_hf_max              =   0.0000000000000E+00
(PID.TID 0000.0001) %MON pe_b_mean                    =   4.4604364327601E-20
(PID.TID 0000.0001) %MON ke_max                       =   2.9613207253544E-16
(PID.TID 0000.0001) %MON ke_mean                      =   4.7222681014899E-17
(PID.TID 0000.0001) %MON ke_vol                       =   7.5645000000000E+15
(PID.TID 0000.0001) %MON vort_r_min                   =  -9.0255740660839E-13
(PID.TID 0000.0001) %MON vort_r_max                   =   1.2710692472967E-12
(PID.TID 0000.0001) %MON vort_a_mean                  =   8.2300000000000E-05
(PID.TID 0000.0001) %MON vort_a_sd                    =   7.1297555115551E-06
(PID.TID 0000.0001) %MON vort_p_mean                  =   8.3303658536585E-05
(PID.TID 0000.0001) %MON vort_p_sd                    =   1.7411470229906E-05
(PID.TID 0000.0001) %MON surfExpan_theta_mean         =   1.6832419609039E-26
(PID.TID 0000.0001) %MON surfExpan_salt_mean          =   2.5215735677914E-26
(PID.TID 0000.0001) // =======================================================
(PID.TID 0000.0001) // End MONITOR dynamic field statistics
(PID.TID 0000.0001) // =======================================================
 cg2d: Sum(rhs),rhsMax =  -1.41767871443182E-03  2.87127790292515E-09
 cg2d: Sum(rhs),rhsMax =  -1.42034119327206E-03  2.86589323009299E-09
 cg2d: Sum(rhs),rhsMax =  -1.42297402141106E-03  2.86058820337633E-09
 cg2d: Sum(rhs),rhsMax =  -1.42557718143332E-03  2.85536207918446E-09
 cg2d: Sum(rhs),rhsMax =  -1.42815067774536E-03  2.85021409630058E-09
 cg2d: Sum(rhs),rhsMax =  -1.43069451388857E-03  2.84514347860872E-09
 cg2d: Sum(rhs),rhsMax =  -1.43320873220123E-03  2.84014943189762E-09
 cg2d: Sum(rhs),rhsMax =  -1.43569353575861E-03  2.83523114785634E-09
 cg2d: Sum(rhs),rhsMax =  -1.43814883452473E-03  2.83038780058589E-09
 cg2d: Sum(rhs),rhsMax =  -1.44057469386626E-03  2.82561854945273E-09
 cg2d: Sum(rhs),rhsMax =  -1.44297121949551E-03  2.82092253820996E-09
 cg2d: Sum(rhs),rhsMax =  -1.44533851298056E-03  2.81629889555548E-09
 cg2d: Sum(rhs),rhsMax =  -1.44767670262616E-03  2.81174673518930E-09
 cg2d: Sum(rhs),rhsMax =  -1.44998592195684E-03  2.80726515611422E-09
 cg2d: Sum(rhs),rhsMax =  -1.45226631754250E-03  2.80285324287048E-09
 cg2d: Sum(rhs),rhsMax =  -1.45451827842859E-03  2.79851006535956E-09
(PID.TID 0000.0001)      cg2d_init_res =   2.02565455201445E-01
(PID.TID 0000.0001)      cg2d_iters(min,last) =      -1     543
(PID.TID 0000.0001)      cg2d_last_res =   9.45538386838903E-08
(PID.TID 0000.0001) // =======================================================
(PID.TID 0000.0001) // Begin MONITOR dynamic field statistics
(PID.TID 0000.0001) // =======================================================
(PID.TID 0000.0001) %MON time_tsnumber                =                   560
(PID.TID 0000.0001) %MON time_secondsf                =   3.0240000000000E+06
(PID.TID 0000.0001) %MON dynstat_eta_max              =   1.7107145106655E-08
(PID.TID 0000.0001) %MON dynstat_eta_min              =  -1.9052923936098E-08
(PID.TID 0000.0001) %MON dynstat_eta_mean             =   3.9227692278351E-13
(PID.TID 0000.0001) %MON dynstat_eta_sd               =   6.6956769904638E-09
(PID.TID 0000.0001) %MON dynstat_eta_del2             =   1.8479729307780E-13
(PID.TID 0000.0001) %MON dynstat_uvel_max             =   2.1162854389580E-08
(PID.TID 0000.0001) %MON dynstat_uvel_min             =  -2.3050415926493E-08
(PID.TID 0000.0001) %MON dynstat_uvel_mean            =  -2.2552071724704E-13
(PID.TID 0000.0001) %MON dynstat_uvel_sd              =   6.7839740148348E-09
(PID.TID 0000.0001) %MON dynstat_uvel_del2            =   6.0524294685026E-13
(PID.TID 0000.0001) %MON dynstat_vvel_max             =   2.3055377902470E-08
(PID.TID 0000.0001) %MON dynstat_vvel_min             =  -2.0202953822601E-08
(PID.TID 0000.0001) %MON dynstat_vvel_mean            =  -1.2729112326060E-13
(PID.TID 0000.0001) %MON dynstat_vvel_sd              =   6.6720657659326E-09
(PID.TID 0000.0001) %MON dynstat_vvel_del2            =   6.4194579564862E-13
(PID.TID 0000.0001) %MON dynstat_wvel_max             =   2.5553922267108E-14
(PID.TID 0000.0001) %MON dynstat_wvel_min             =  -1.9597115540615E-14
(PID.TID 0000.0001) %MON dynstat_wvel_mean            =  -1.4269102880317E-27
(PID.TID 0000.0001) %MON dynstat_wvel_sd              =   9.8413899508766E-15
(PID.TID 0000.0001) %MON dynstat_wvel_del2            =   1.5523945978916E-19
(PID.TID 0000.0001) %MON dynstat_theta_max            =   2.0000000000000E+01
(PID.TID 0000.0001) %MON dynstat_theta_min            =   2.0000000000000E+01
(PID.TID 0000.0001) %MON dynstat_theta_mean           =   2.0000000000000E+01
(PID.TID 0000.0001) %MON dynstat_theta_sd             =   0.0000000000000E+00
(PID.TID 0000.0001) %MON dynstat_theta_del2           =   0.0000000000000E+00
(PID.TID 0000.0001) %MON dynstat_salt_max             =   3.0000000000000E+01
(PID.TID 0000.0001) %MON dynstat_salt_min             =   3.0000000000000E+01
(PID.TID 0000.0001) %MON dynstat_salt_mean            =   3.0000000000000E+01
(PID.TID 0000.0001) %MON dynstat_salt_sd              =   0.0000000000000E+00
(PID.TID 0000.0001) %MON dynstat_salt_del2            =   0.0000000000000E+00
(PID.TID 0000.0001) %MON trAdv_CFL_u_max              =   2.4940683711170E-08
(PID.TID 0000.0001) %MON trAdv_CFL_v_max              =   2.4952400124700E-08
(PID.TID 0000.0001) %MON trAdv_CFL_w_max              =   2.7560309527352E-14
(PID.TID 0000.0001) %MON advcfl_uvel_max              =   2.4894449200612E-08
(PID.TID 0000.0001) %MON advcfl_vvel_max              =   2.4899808134668E-08
(PID.TID 0000.0001) %MON advcfl_wvel_max              =   5.5196472096952E-14
(PID.TID 0000.0001) %MON advcfl_W_hf_max              =   0.0000000000000E+00
(PID.TID 0000.0001) %MON pe_b_mean                    =   4.3980280794732E-20
(PID.TID 0000.0001) %MON ke_max                       =   2.6668101743399E-16
(PID.TID 0000.0001) %MON ke_mean                      =   4.5085360662717E-17
(PID.TID 0000.0001) %MON ke_vol                       =   7.5645000000000E+15
(PID.TID 0000.0001) %MON vort_r_min                   =  -8.7204009605110E-13
(PID.TID 0000.0001) %MON vort_r_max                   =   1.2321364436302E-12
(PID.TID 0000.0001) %MON vort_a_mean                  =   8.2300000000001E-05
(PID.TID 0000.0001) %MON vort_a_sd                    =   7.1297555115497E-06
(PID.TID 0000.0001) %MON vort_p_mean                  =   8.3303658536586E-05
(PID.TID 0000.0001) %MON vort_p_sd                    =   1.7411470229419E-05
(PID.TID 0000.0001) %MON surfExpan_theta_mean         =  -2.8483750060045E-26
(PID.TID 0000.0001) %MON surfExpan_salt_mean          =  -4.2759860248147E-26
(PID.TID 0000.0001) // =======================================================
(PID.TID 0000.0001) // End MONITOR dynamic field statistics
(PID.TID 0000.0001) // =======================================================
 cg2d: Sum(rhs),rhsMax =  -1.45674179177333E-03  2.79423468098355E-09
 cg2d: Sum(rhs),rhsMax =  -1.45893704240106E-03  2.79002613185901E-09
 cg2d: Sum(rhs),rhsMax =  -1.46110423982179E-03  2.78588344657898E-09
 cg2d: Sum(rhs),rhsMax =  -1.46323841757566E-03  2.78181549046303E-09
 cg2d: Sum(rhs),rhsMax =  -1.46532732565109E-03  2.77784486882717E-09
 cg2d: Sum(rhs),rhsMax =  -1.46738898579801E-03  2.77393666052433E-09
 cg2d: Sum(rhs),rhsMax =  -1.46942365330920E-03  2.77008984395744E-09
 cg2d: Sum(rhs),rhsMax =  -1.47143157953965E-03  2.76630338511708E-09
 cg2d: Sum(rhs),rhsMax =  -1.47341303664716E-03  2.76257623826467E-09
 cg2d: Sum(rhs),rhsMax =  -1.47536872770954E-03  2.75890734533531E-09
 cg2d: Sum(rhs),rhsMax =  -1.47729849774894E-03  2.75529563962575E-09
 cg2d: Sum(rhs),rhsMax =  -1.47920255405403E-03  2.75174004022953E-09
 cg2d: Sum(rhs),rhsMax =  -1.48108177206719E-03  2.74823945745203E-09
 cg2d: Sum(rhs),rhsMax =  -1.48293562208141E-03  2.74479279006307E-09
 cg2d: Sum(rhs),rhsMax =  -1.48476392210857E-03  2.74139892645175E-09
 cg2d: Sum(rhs),rhsMax =  -1.48656588249812E-03  2.73805674667600E-09
(PID.TID 0000.0001)      cg2d_init_res =   1.94679040432802E-01
(PID.TID 0000.0001)      cg2d_iters(min,last) =      -1     545
(PID.TID 0000.0001)      cg2d_last_res =   9.99516423413693E-08
(PID.TID 0000.0001) // =======================================================
(PID.TID 0000.0001) // Begin MONITOR dynamic field statistics
(PID.TID 0000.0001) // =======================================================
(PID.TID 0000.0001) %MON time_tsnumber                =                   576
(PID.TID 0000.0001) %MON time_secondsf                =   3.1104000000000E+06
(PID.TID 0000.0001) %MON dynstat_eta_max              =   1.7291289233942E-08
(PID.TID 0000.0001) %MON dynstat_eta_min              =  -1.8753456072214E-08
(PID.TID 0000.0001) %MON dynstat_eta_mean             =   3.9225550746443E-13
(PID.TID 0000.0001) %MON dynstat_eta_sd               =   6.6395378472756E-09
(PID.TID 0000.0001) %MON dynstat_eta_del2             =   1.7774723432100E-13
(PID.TID 0000.0001) %MON dynstat_uvel_max             =   2.1076760384778E-08
(PID.TID 0000.0001) %MON dynstat_uvel_min             =  -2.2462861804525E-08
(PID.TID 0000.0001) %MON dynstat_uvel_mean            =  -2.7189830113947E-13
(PID.TID 0000.0001) %MON dynstat_uvel_sd              =   6.6347955901439E-09
(PID.TID 0000.0001) %MON dynstat_uvel_del2            =   5.6974867433382E-13
(PID.TID 0000.0001) %MON dynstat_vvel_max             =   2.2343138760475E-08
(PID.TID 0000.0001) %MON dynstat_vvel_min             =  -1.9599456193465E-08
(PID.TID 0000.0001) %MON dynstat_vvel_mean            =  -1.1591202054686E-13
(PID.TID 0000.0001) %MON dynstat_vvel_sd              =   6.5235912732678E-09
(PID.TID 0000.0001) %MON dynstat_vvel_del2            =   6.1535976311497E-13
(PID.TID 0000.0001) %MON dynstat_wvel_max             =   2.5609826193040E-14
(PID.TID 0000.0001) %MON dynstat_wvel_min             =  -2.1171212950533E-14
(PID.TID 0000.0001) %MON dynstat_wvel_mean            =   3.1692592762901E-27
(PID.TID 0000.0001) %MON dynstat_wvel_sd              =   9.8975271768902E-15
(PID.TID 0000.0001) %MON dynstat_wvel_del2            =   1.4606330491764E-19
(PID.TID 0000.0001) %MON dynstat_theta_max            =   2.0000000000000E+01
(PID.TID 0000.0001) %MON dynstat_theta_min            =   2.0000000000000E+01
(PID.TID 0000.0001) %MON dynstat_theta_mean           =   2.0000000000000E+01
(PID.TID 0000.0001) %MON dynstat_theta_sd             =   0.0000000000000E+00
(PID.TID 0000.0001) %MON dynstat_theta_del2           =   0.0000000000000E+00
(PID.TID 0000.0001) %MON dynstat_salt_max             =   3.0000000000000E+01
(PID.TID 0000.0001) %MON dynstat_salt_min             =   3.0000000000000E+01
(PID.TID 0000.0001) %MON dynstat_salt_mean            =   3.0000000000000E+01
(PID.TID 0000.0001) %MON dynstat_salt_sd              =   0.0000000000000E+00
(PID.TID 0000.0001) %MON dynstat_salt_del2            =   0.0000000000000E+00
(PID.TID 0000.0001) %MON trAdv_CFL_u_max              =   2.4294923133583E-08
(PID.TID 0000.0001) %MON trAdv_CFL_v_max              =   2.4174832629054E-08
(PID.TID 0000.0001) %MON trAdv_CFL_w_max              =   2.7682084700498E-14
(PID.TID 0000.0001) %MON advcfl_uvel_max              =   2.4259890748887E-08
(PID.TID 0000.0001) %MON advcfl_vvel_max              =   2.4130589861314E-08
(PID.TID 0000.0001) %MON advcfl_wvel_max              =   5.5317224576967E-14
(PID.TID 0000.0001) %MON advcfl_W_hf_max              =   0.0000000000000E+00
(PID.TID 0000.0001) %MON pe_b_mean                    =   4.3245877182664E-20
(PID.TID 0000.0001) %MON ke_max                       =   2.5271789526120E-16
(PID.TID 0000.0001) %MON ke_mean                      =   4.3112906807314E-17
(PID.TID 0000.0001) %MON ke_vol                       =   7.5645000000000E+15
(PID.TID 0000.0001) %MON vort_r_min                   =  -8.4148754547170E-13
(PID.TID 0000.0001) %MON vort_r_max                   =   1.2010362802078E-12
(PID.TID 0000.0001) %MON vort_a_mean                  =   8.2300000000000E-05
(PID.TID 0000.0001) %MON vort_a_sd                    =   7.1297555115633E-06
(PID.TID 0000.0001) %MON vort_p_mean                  =   8.3303658536585E-05
(PID.TID 0000.0001) %MON vort_p_sd                    =   1.7411470228963E-05
(PID.TID 0000.0001) %MON surfExpan_theta_mean         =   6.3333830880632E-26
(PID.TID 0000.0001) %MON surfExpan_salt_mean          =   9.5008876807074E-26
(PID.TID 0000.0001) // =======================================================
(PID.TID 0000.0001) // End MONITOR dynamic field statistics
(PID.TID 0000.0001) // =======================================================
 cg2d: Sum(rhs),rhsMax =  -1.48833850352096E-03  2.73476511977132E-09
 cg2d: Sum(rhs),rhsMax =  -1.48741590433550E-03  2.73152290095114E-09
 cg2d: Sum(rhs),rhsMax =  -1.49067601522607E-03  2.72832895571668E-09
 cg2d: Sum(rhs),rhsMax =  -1.49241424772285E-03  2.72518211691775E-09
 cg2d: Sum(rhs),rhsMax =  -1.49412406868202E-03  2.72208121544737E-09
 cg2d: Sum(rhs),rhsMax =  -1.49581021058567E-03  2.71902508252329E-09
 cg2d: Sum(rhs),rhsMax =  -1.49747452286602E-03  2.71601253491351E-09
 cg2d: Sum(rhs),rhsMax =  -1.49911809904644E-03  2.71304238336625E-09
 cg2d: Sum(rhs),rhsMax =  -1.50074177019848E-03  2.71011343134652E-09
 cg2d: Sum(rhs),rhsMax =  -1.50234625868298E-03  2.70722447539667E-09
 cg2d: Sum(rhs),rhsMax =  -1.50393222938340E-03  2.70437430544314E-09
 cg2d: Sum(rhs),rhsMax =  -1.50550030137201E-03  2.70156170511313E-09
 cg2d: Sum(rhs),rhsMax =  -1.50705109856858E-03  2.69878545204471E-09
 cg2d: Sum(rhs),rhsMax =  -1.50858523629070E-03  2.69604431819760E-09
 cg2d: Sum(rhs),rhsMax =  -1.51010332582963E-03  2.69333707016430E-09
 cg2d: Sum(rhs),rhsMax =  -1.51160598546920E-03  2.69066246948137E-09
(PID.TID 0000.0001)      cg2d_init_res =   1.87158435898230E-01
(PID.TID 0000.0001)      cg2d_iters(min,last) =      -1     546
(PID.TID 0000.0001)      cg2d_last_res =   9.51882099013789E-08
(PID.TID 0000.0001) // =======================================================
(PID.TID 0000.0001) // Begin MONITOR dynamic field statistics
(PID.TID 0000.0001) // =======================================================
(PID.TID 0000.0001) %MON time_tsnumber                =                   592
(PID.TID 0000.0001) %MON time_secondsf                =   3.1968000000000E+06
(PID.TID 0000.0001) %MON dynstat_eta_max              =   1.7936455048306E-08
(PID.TID 0000.0001) %MON dynstat_eta_min              =  -1.8495768680935E-08
(PID.TID 0000.0001) %MON dynstat_eta_mean             =   3.9196342242829E-13
(PID.TID 0000.0001) %MON dynstat_eta_sd               =   6.5736799731162E-09
(PID.TID 0000.0001) %MON dynstat_eta_del2             =   1.7138224974126E-13
(PID.TID 0000.0001) %MON dynstat_uvel_max             =   2.0960694455012E-08
(PID.TID 0000.0001) %MON dynstat_uvel_min             =  -2.2012564083979E-08
(PID.TID 0000.0001) %MON dynstat_uvel_mean            =  -2.9883770094696E-13
(PID.TID 0000.0001) %MON dynstat_uvel_sd              =   6.4913345618677E-09
(PID.TID 0000.0001) %MON dynstat_uvel_del2            =   5.3787012909774E-13
(PID.TID 0000.0001) %MON dynstat_vvel_max             =   2.1745579035371E-08
(PID.TID 0000.0001) %MON dynstat_vvel_min             =  -1.9064161447288E-08
(PID.TID 0000.0001) %MON dynstat_vvel_mean            =  -1.0271752951889E-13
(PID.TID 0000.0001) %MON dynstat_vvel_sd              =   6.3848714404471E-09
(PID.TID 0000.0001) %MON dynstat_vvel_del2            =   5.9182603214150E-13
(PID.TID 0000.0001) %MON dynstat_wvel_max             =   2.4806280611855E-14
(PID.TID 0000.0001) %MON dynstat_wvel_min             =  -2.2542141318027E-14
(PID.TID 0000.0001) %MON dynstat_wvel_mean            =   1.2751047128993E-27
(PID.TID 0000.0001) %MON dynstat_wvel_sd              =   9.9502055400913E-15
(PID.TID 0000.0001) %MON dynstat_wvel_del2            =   1.3785785335437E-19
(PID.TID 0000.0001) %MON dynstat_theta_max            =   2.0000000000000E+01
(PID.TID 0000.0001) %MON dynstat_theta_min            =   2.0000000000000E+01
(PID.TID 0000.0001) %MON dynstat_theta_mean           =   2.0000000000000E+01
(PID.TID 0000.0001) %MON dynstat_theta_sd             =   0.0000000000000E+00
(PID.TID 0000.0001) %MON dynstat_theta_del2           =   0.0000000000000E+00
(PID.TID 0000.0001) %MON dynstat_salt_max             =   3.0000000000000E+01
(PID.TID 0000.0001) %MON dynstat_salt_min             =   3.0000000000000E+01
(PID.TID 0000.0001) %MON dynstat_salt_mean            =   3.0000000000000E+01
(PID.TID 0000.0001) %MON dynstat_salt_sd              =   0.0000000000000E+00
(PID.TID 0000.0001) %MON dynstat_salt_del2            =   0.0000000000000E+00
(PID.TID 0000.0001) %MON trAdv_CFL_u_max              =   2.3799918546316E-08
(PID.TID 0000.0001) %MON trAdv_CFL_v_max              =   2.3522341661674E-08
(PID.TID 0000.0001) %MON trAdv_CFL_w_max              =   2.6872148033963E-14
(PID.TID 0000.0001) %MON advcfl_uvel_max              =   2.3773569210698E-08
(PID.TID 0000.0001) %MON advcfl_vvel_max              =   2.3485225358201E-08
(PID.TID 0000.0001) %MON advcfl_wvel_max              =   5.3581566121608E-14
(PID.TID 0000.0001) %MON advcfl_W_hf_max              =   0.0000000000000E+00
(PID.TID 0000.0001) %MON pe_b_mean                    =   4.2392216440275E-20
(PID.TID 0000.0001) %MON ke_max                       =   2.4259467918267E-16
(PID.TID 0000.0001) %MON ke_mean                      =   4.1283499821591E-17
(PID.TID 0000.0001) %MON ke_vol                       =   7.5645000000000E+15
(PID.TID 0000.0001) %MON vort_r_min                   =  -8.1078169639337E-13
(PID.TID 0000.0001) %MON vort_r_max                   =   1.1762600201484E-12
(PID.TID 0000.0001) %MON vort_a_mean                  =   8.2299999999999E-05
(PID.TID 0000.0001) %MON vort_a_sd                    =   7.1297555115751E-06
(PID.TID 0000.0001) %MON vort_p_mean                  =   8.3303658536584E-05
(PID.TID 0000.0001) %MON vort_p_sd                    =   1.7411470228526E-05
(PID.TID 0000.0001) %MON surfExpan_theta_mean         =   2.5531137317411E-26
(PID.TID 0000.0001) %MON surfExpan_salt_mean          =   3.8377148631852E-26
(PID.TID 0000.0001) // =======================================================
(PID.TID 0000.0001) // End MONITOR dynamic field statistics
(PID.TID 0000.0001) // =======================================================
 cg2d: Sum(rhs),rhsMax =  -1.51309383604240E-03  2.68801927294257E-09
 cg2d: Sum(rhs),rhsMax =  -1.51456773641089E-03  2.68540623343530E-09
 cg2d: Sum(rhs),rhsMax =  -1.51602828253546E-03  2.68282209648775E-09
 cg2d: Sum(rhs),rhsMax =  -1.51747606684245E-03  2.68026561065928E-09
 cg2d: Sum(rhs),rhsMax =  -1.51891135839476E-03  2.67773551461006E-09
 cg2d: Sum(rhs),rhsMax =  -1.52033499110447E-03  2.67523054699710E-09
 cg2d: Sum(rhs),rhsMax =  -1.52174779657517E-03  2.67274944199352E-09
 cg2d: Sum(rhs),rhsMax =  -1.52315024884106E-03  2.67029093265232E-09
 cg2d: Sum(rhs),rhsMax =  -1.52454300778492E-03  2.66785374850959E-09
 cg2d: Sum(rhs),rhsMax =  -1.52592676815206E-03  2.66543661851471E-09
 cg2d: Sum(rhs),rhsMax =  -1.52730218707055E-03  2.66303826903966E-09
 cg2d: Sum(rhs),rhsMax =  -1.52866996103960E-03  2.66065742588248E-09
 cg2d: Sum(rhs),rhsMax =  -1.53003076682306E-03  2.65829281338880E-09
 cg2d: Sum(rhs),rhsMax =  -1.53138542207014E-03  2.65594315516665E-09
 cg2d: Sum(rhs),rhsMax =  -1.53273459203014E-03  2.65360717536523E-09
 cg2d: Sum(rhs),rhsMax =  -1.53407896610613E-03  2.65128359912853E-09
(PID.TID 0000.0001)      cg2d_init_res =   1.80439589155703E-01
(PID.TID 0000.0001)      cg2d_iters(min,last) =      -1     540
(PID.TID 0000.0001)      cg2d_last_res =   9.14394676978990E-08
(PID.TID 0000.0001) // =======================================================
(PID.TID 0000.0001) // Begin MONITOR dynamic field statistics
(PID.TID 0000.0001) // =======================================================
(PID.TID 0000.0001) %MON time_tsnumber                =                   608
(PID.TID 0000.0001) %MON time_secondsf                =   3.2832000000000E+06
(PID.TID 0000.0001) %MON dynstat_eta_max              =   1.8448834802145E-08
(PID.TID 0000.0001) %MON dynstat_eta_min              =  -1.8275797622189E-08
(PID.TID 0000.0001) %MON dynstat_eta_mean             =   3.9196876832139E-13
(PID.TID 0000.0001) %MON dynstat_eta_sd               =   6.4979242893089E-09
(PID.TID 0000.0001) %MON dynstat_eta_del2             =   1.6560642633074E-13
(PID.TID 0000.0001) %MON dynstat_uvel_max             =   2.0701877153579E-08
(PID.TID 0000.0001) %MON dynstat_uvel_min             =  -2.1692998361735E-08
(PID.TID 0000.0001) %MON dynstat_uvel_mean            =  -3.0490864619809E-13
(PID.TID 0000.0001) %MON dynstat_uvel_sd              =   6.3523230480864E-09
(PID.TID 0000.0001) %MON dynstat_uvel_del2            =   5.0920158769677E-13
(PID.TID 0000.0001) %MON dynstat_vvel_max             =   2.1240970876211E-08
(PID.TID 0000.0001) %MON dynstat_vvel_min             =  -1.8607313479658E-08
(PID.TID 0000.0001) %MON dynstat_vvel_mean            =  -8.8196159122958E-14
(PID.TID 0000.0001) %MON dynstat_vvel_sd              =   6.2553916572873E-09
(PID.TID 0000.0001) %MON dynstat_vvel_del2            =   5.7044733507420E-13
(PID.TID 0000.0001) %MON dynstat_wvel_max             =   2.3208621642290E-14
(PID.TID 0000.0001) %MON dynstat_wvel_min             =  -2.3906297994536E-14
(PID.TID 0000.0001) %MON dynstat_wvel_mean            =  -5.2648438979095E-28
(PID.TID 0000.0001) %MON dynstat_wvel_sd              =   9.9886462602215E-15
(PID.TID 0000.0001) %MON dynstat_wvel_del2            =   1.3065947065156E-19
(PID.TID 0000.0001) %MON dynstat_theta_max            =   2.0000000000000E+01
(PID.TID 0000.0001) %MON dynstat_theta_min            =   2.0000000000000E+01
(PID.TID 0000.0001) %MON dynstat_theta_mean           =   2.0000000000000E+01
(PID.TID 0000.0001) %MON dynstat_theta_sd             =   0.0000000000000E+00
(PID.TID 0000.0001) %MON dynstat_theta_del2           =   0.0000000000000E+00
(PID.TID 0000.0001) %MON dynstat_salt_max             =   3.0000000000000E+01
(PID.TID 0000.0001) %MON dynstat_salt_min             =   3.0000000000000E+01
(PID.TID 0000.0001) %MON dynstat_salt_mean            =   3.0000000000000E+01
(PID.TID 0000.0001) %MON dynstat_salt_sd              =   0.0000000000000E+00
(PID.TID 0000.0001) %MON dynstat_salt_del2            =   0.0000000000000E+00
(PID.TID 0000.0001) %MON trAdv_CFL_u_max              =   2.3444259359774E-08
(PID.TID 0000.0001) %MON trAdv_CFL_v_max              =   2.2971902342489E-08
(PID.TID 0000.0001) %MON trAdv_CFL_w_max              =   2.5200340881248E-14
(PID.TID 0000.0001) %MON advcfl_uvel_max              =   2.3428438230674E-08
(PID.TID 0000.0001) %MON advcfl_vvel_max              =   2.2940248546308E-08
(PID.TID 0000.0001) %MON advcfl_wvel_max              =   5.1637603668198E-14
(PID.TID 0000.0001) %MON advcfl_W_hf_max              =   0.0000000000000E+00
(PID.TID 0000.0001) %MON pe_b_mean                    =   4.1420782838989E-20
(PID.TID 0000.0001) %MON ke_max                       =   2.3551870543684E-16
(PID.TID 0000.0001) %MON ke_mean                      =   3.9579417852732E-17
(PID.TID 0000.0001) %MON ke_vol                       =   7.5645000000000E+15
(PID.TID 0000.0001) %MON vort_r_min                   =  -7.7983642216083E-13
(PID.TID 0000.0001) %MON vort_r_max                   =   1.1559720809546E-12
(PID.TID 0000.0001) %MON vort_a_mean                  =   8.2300000000000E-05
(PID.TID 0000.0001) %MON vort_a_sd                    =   7.1297555115619E-06
(PID.TID 0000.0001) %MON vort_p_mean                  =   8.3303658536585E-05
(PID.TID 0000.0001) %MON vort_p_sd                    =   1.7411470228098E-05
(PID.TID 0000.0001) %MON surfExpan_theta_mean         =  -1.0827088773061E-26
(PID.TID 0000.0001) %MON surfExpan_salt_mean          =  -1.6139878285384E-26
(PID.TID 0000.0001) // =======================================================
(PID.TID 0000.0001) // End MONITOR dynamic field statistics
(PID.TID 0000.0001) // =======================================================
 cg2d: Sum(rhs),rhsMax =  -1.53541908700500E-03  2.64897114770489E-09
 cg2d: Sum(rhs),rhsMax =  -1.53675581867356E-03  2.64666854698890E-09
 cg2d: Sum(rhs),rhsMax =  -1.53808984242515E-03  2.64437452302069E-09
 cg2d: Sum(rhs),rhsMax =  -1.53942186094683E-03  2.64208780210546E-09
 cg2d: Sum(rhs),rhsMax =  -1.54075271395391E-03  2.63980711260949E-09
 cg2d: Sum(rhs),rhsMax =  -1.54208302094120E-03  2.63753118340584E-09
 cg2d: Sum(rhs),rhsMax =  -1.54341349757633E-03  2.63525875060765E-09
 cg2d: Sum(rhs),rhsMax =  -1.54474496276094E-03  2.63298854812300E-09
 cg2d: Sum(rhs),rhsMax =  -1.54607814209329E-03  2.63071931390482E-09
 cg2d: Sum(rhs),rhsMax =  -1.54741370507378E-03  2.62844978893850E-09
 cg2d: Sum(rhs),rhsMax =  -1.54875246895383E-03  2.62617871882362E-09
 cg2d: Sum(rhs),rhsMax =  -1.55009519362504E-03  2.62390485106406E-09
 cg2d: Sum(rhs),rhsMax =  -1.55144262156177E-03  2.62162693935401E-09
 cg2d: Sum(rhs),rhsMax =  -1.55279550954400E-03  2.61934374025941E-09
 cg2d: Sum(rhs),rhsMax =  -1.55415462236075E-03  2.61705401616223E-09
 cg2d: Sum(rhs),rhsMax =  -1.55552071841869E-03  2.61475653361416E-09
(PID.TID 0000.0001)      cg2d_init_res =   1.74929952826549E-01
(PID.TID 0000.0001)      cg2d_iters(min,last) =      -1     543
(PID.TID 0000.0001)      cg2d_last_res =   9.23975728697102E-08
(PID.TID 0000.0001) // =======================================================
(PID.TID 0000.0001) // Begin MONITOR dynamic field statistics
(PID.TID 0000.0001) // =======================================================
(PID.TID 0000.0001) %MON time_tsnumber                =                   624
(PID.TID 0000.0001) %MON time_secondsf                =   3.3696000000000E+06
(PID.TID 0000.0001) %MON dynstat_eta_max              =   1.8854179358276E-08
(PID.TID 0000.0001) %MON dynstat_eta_min              =  -1.8070236460718E-08
(PID.TID 0000.0001) %MON dynstat_eta_mean             =   3.9197150625144E-13
(PID.TID 0000.0001) %MON dynstat_eta_sd               =   6.4125246129323E-09
(PID.TID 0000.0001) %MON dynstat_eta_del2             =   1.6032824000095E-13
(PID.TID 0000.0001) %MON dynstat_uvel_max             =   2.0311617855104E-08
(PID.TID 0000.0001) %MON dynstat_uvel_min             =  -2.1513782495246E-08
(PID.TID 0000.0001) %MON dynstat_uvel_mean            =  -2.8991481568056E-13
(PID.TID 0000.0001) %MON dynstat_uvel_sd              =   6.2173074401002E-09
(PID.TID 0000.0001) %MON dynstat_uvel_del2            =   4.8342326971303E-13
(PID.TID 0000.0001) %MON dynstat_vvel_max             =   2.0802010021222E-08
(PID.TID 0000.0001) %MON dynstat_vvel_min             =  -1.8231772428128E-08
(PID.TID 0000.0001) %MON dynstat_vvel_mean            =  -7.2857498544716E-14
(PID.TID 0000.0001) %MON dynstat_vvel_sd              =   6.1341637338523E-09
(PID.TID 0000.0001) %MON dynstat_vvel_del2            =   5.5045835369928E-13
(PID.TID 0000.0001) %MON dynstat_wvel_max             =   2.2102871919394E-14
(PID.TID 0000.0001) %MON dynstat_wvel_min             =  -2.5694372027818E-14
(PID.TID 0000.0001) %MON dynstat_wvel_mean            =  -1.5407302176507E-27
(PID.TID 0000.0001) %MON dynstat_wvel_sd              =   1.0007181217880E-14
(PID.TID 0000.0001) %MON dynstat_wvel_del2            =   1.2450254162692E-19
(PID.TID 0000.0001) %MON dynstat_theta_max            =   2.0000000000000E+01
(PID.TID 0000.0001) %MON dynstat_theta_min            =   2.0000000000000E+01
(PID.TID 0000.0001) %MON dynstat_theta_mean           =   2.0000000000000E+01
(PID.TID 0000.0001) %MON dynstat_theta_sd             =   0.0000000000000E+00
(PID.TID 0000.0001) %MON dynstat_theta_del2           =   0.0000000000000E+00
(PID.TID 0000.0001) %MON dynstat_salt_max             =   3.0000000000000E+01
(PID.TID 0000.0001) %MON dynstat_salt_min             =   3.0000000000000E+01
(PID.TID 0000.0001) %MON dynstat_salt_mean            =   3.0000000000000E+01
(PID.TID 0000.0001) %MON dynstat_salt_sd              =   0.0000000000000E+00
(PID.TID 0000.0001) %MON dynstat_salt_del2            =   0.0000000000000E+00
(PID.TID 0000.0001) %MON trAdv_CFL_u_max              =   2.3243920619224E-08
(PID.TID 0000.0001) %MON trAdv_CFL_v_max              =   2.2494342055013E-08
(PID.TID 0000.0001) %MON trAdv_CFL_w_max              =   2.3918678432278E-14
(PID.TID 0000.0001) %MON advcfl_uvel_max              =   2.3234885094865E-08
(PID.TID 0000.0001) %MON advcfl_vvel_max              =   2.2466170822920E-08
(PID.TID 0000.0001) %MON advcfl_wvel_max              =   5.5499843580087E-14
(PID.TID 0000.0001) %MON advcfl_W_hf_max              =   0.0000000000000E+00
(PID.TID 0000.0001) %MON pe_b_mean                    =   4.0339183095867E-20
(PID.TID 0000.0001) %MON ke_max                       =   2.3148433638722E-16
(PID.TID 0000.0001) %MON ke_mean                      =   3.7986391806726E-17
(PID.TID 0000.0001) %MON ke_vol                       =   7.5645000000000E+15
(PID.TID 0000.0001) %MON vort_r_min                   =  -7.4929565603290E-13
(PID.TID 0000.0001) %MON vort_r_max                   =   1.1381326224295E-12
(PID.TID 0000.0001) %MON vort_a_mean                  =   8.2300000000000E-05
(PID.TID 0000.0001) %MON vort_a_sd                    =   7.1297555115516E-06
(PID.TID 0000.0001) %MON vort_p_mean                  =   8.3303658536586E-05
(PID.TID 0000.0001) %MON vort_p_sd                    =   1.7411470227687E-05
(PID.TID 0000.0001) %MON surfExpan_theta_mean         =  -3.0894995990816E-26
(PID.TID 0000.0001) %MON surfExpan_salt_mean          =  -4.6316435363884E-26
(PID.TID 0000.0001) // =======================================================
(PID.TID 0000.0001) // End MONITOR dynamic field statistics
(PID.TID 0000.0001) // =======================================================
 cg2d: Sum(rhs),rhsMax =  -1.55689455223309E-03  2.61245006519827E-09
 cg2d: Sum(rhs),rhsMax =  -1.55827689892697E-03  2.61013338862320E-09
 cg2d: Sum(rhs),rhsMax =  -1.55966851456084E-03  2.60780528791563E-09
 cg2d: Sum(rhs),rhsMax =  -1.56107018393112E-03  2.60546455315461E-09
 cg2d: Sum(rhs),rhsMax =  -1.56248266717258E-03  2.60310998099837E-09
 cg2d: Sum(rhs),rhsMax =  -1.56390673374264E-03  2.60074037510450E-09
 cg2d: Sum(rhs),rhsMax =  -1.56534316355746E-03  2.59835454594246E-09
 cg2d: Sum(rhs),rhsMax =  -1.56679272071049E-03  2.59595131193409E-09
 cg2d: Sum(rhs),rhsMax =  -1.56825625986767E-03  2.59352949840876E-09
 cg2d: Sum(rhs),rhsMax =  -1.56973447948341E-03  2.59108793979554E-09
 cg2d: Sum(rhs),rhsMax =  -1.57122816609381E-03  2.58862547816450E-09
 cg2d: Sum(rhs),rhsMax =  -1.57273809924557E-03  2.58614096404238E-09
 cg2d: Sum(rhs),rhsMax =  -1.57426505630528E-03  2.58363325717490E-09
 cg2d: Sum(rhs),rhsMax =  -1.57580982465785E-03  2.58110122637627E-09
 cg2d: Sum(rhs),rhsMax =  -1.57737318025050E-03  2.57854374988125E-09
 cg2d: Sum(rhs),rhsMax =  -1.57895591570391E-03  2.57595971562657E-09
(PID.TID 0000.0001)      cg2d_init_res =   1.70983927153991E-01
(PID.TID 0000.0001)      cg2d_iters(min,last) =      -1     542
(PID.TID 0000.0001)      cg2d_last_res =   9.86718531806531E-08
(PID.TID 0000.0001) // =======================================================
(PID.TID 0000.0001) // Begin MONITOR dynamic field statistics
(PID.TID 0000.0001) // =======================================================
(PID.TID 0000.0001) %MON time_tsnumber                =                   640
(PID.TID 0000.0001) %MON time_secondsf                =   3.4560000000000E+06
(PID.TID 0000.0001) %MON dynstat_eta_max              =   1.9059869851611E-08
(PID.TID 0000.0001) %MON dynstat_eta_min              =  -1.7857196988811E-08
(PID.TID 0000.0001) %MON dynstat_eta_mean             =   3.9197329956781E-13
(PID.TID 0000.0001) %MON dynstat_eta_sd               =   6.3179896324152E-09
(PID.TID 0000.0001) %MON dynstat_eta_del2             =   1.5546173627822E-13
(PID.TID 0000.0001) %MON dynstat_uvel_max             =   1.9788375564778E-08
(PID.TID 0000.0001) %MON dynstat_uvel_min             =  -2.1422454572317E-08
(PID.TID 0000.0001) %MON dynstat_uvel_mean            =  -2.5489140821753E-13
(PID.TID 0000.0001) %MON dynstat_uvel_sd              =   6.0866435298396E-09
(PID.TID 0000.0001) %MON dynstat_uvel_del2            =   4.6026983181237E-13
(PID.TID 0000.0001) %MON dynstat_vvel_max             =   2.0402533691215E-08
(PID.TID 0000.0001) %MON dynstat_vvel_min             =  -1.7929805970587E-08
(PID.TID 0000.0001) %MON dynstat_vvel_mean            =  -5.7209420071294E-14
(PID.TID 0000.0001) %MON dynstat_vvel_sd              =   6.0196941635095E-09
(PID.TID 0000.0001) %MON dynstat_vvel_del2            =   5.3125102357750E-13
(PID.TID 0000.0001) %MON dynstat_wvel_max             =   2.1112722099481E-14
(PID.TID 0000.0001) %MON dynstat_wvel_min             =  -2.7017760356740E-14
(PID.TID 0000.0001) %MON dynstat_wvel_mean            =   1.1550908349501E-27
(PID.TID 0000.0001) %MON dynstat_wvel_sd              =   1.0005183181426E-14
(PID.TID 0000.0001) %MON dynstat_wvel_del2            =   1.1929944446024E-19
(PID.TID 0000.0001) %MON dynstat_theta_max            =   2.0000000000000E+01
(PID.TID 0000.0001) %MON dynstat_theta_min            =   2.0000000000000E+01
(PID.TID 0000.0001) %MON dynstat_theta_mean           =   2.0000000000000E+01
(PID.TID 0000.0001) %MON dynstat_theta_sd             =   0.0000000000000E+00
(PID.TID 0000.0001) %MON dynstat_theta_del2           =   0.0000000000000E+00
(PID.TID 0000.0001) %MON dynstat_salt_max             =   3.0000000000000E+01
(PID.TID 0000.0001) %MON dynstat_salt_min             =   3.0000000000000E+01
(PID.TID 0000.0001) %MON dynstat_salt_mean            =   3.0000000000000E+01
(PID.TID 0000.0001) %MON dynstat_salt_sd              =   0.0000000000000E+00
(PID.TID 0000.0001) %MON dynstat_salt_del2            =   0.0000000000000E+00
(PID.TID 0000.0001) %MON trAdv_CFL_u_max              =   2.3140180733257E-08
(PID.TID 0000.0001) %MON trAdv_CFL_v_max              =   2.2061151084075E-08
(PID.TID 0000.0001) %MON trAdv_CFL_w_max              =   2.2889486037769E-14
(PID.TID 0000.0001) %MON advcfl_uvel_max              =   2.3136250938103E-08
(PID.TID 0000.0001) %MON advcfl_vvel_max              =   2.2034736386512E-08
(PID.TID 0000.0001) %MON advcfl_wvel_max              =   5.8358362370559E-14
(PID.TID 0000.0001) %MON advcfl_W_hf_max              =   0.0000000000000E+00
(PID.TID 0000.0001) %MON pe_b_mean                    =   3.9158570279119E-20
(PID.TID 0000.0001) %MON ke_max                       =   2.2963770832809E-16
(PID.TID 0000.0001) %MON ke_mean                      =   3.6493022562385E-17
(PID.TID 0000.0001) %MON ke_vol                       =   7.5645000000000E+15
(PID.TID 0000.0001) %MON vort_r_min                   =  -7.4191724764478E-13
(PID.TID 0000.0001) %MON vort_r_max                   =   1.1206309235912E-12
(PID.TID 0000.0001) %MON vort_a_mean                  =   8.2300000000001E-05
(PID.TID 0000.0001) %MON vort_a_sd                    =   7.1297555115544E-06
(PID.TID 0000.0001) %MON vort_p_mean                  =   8.3303658536586E-05
(PID.TID 0000.0001) %MON vort_p_sd                    =   1.7411470227297E-05
(PID.TID 0000.0001) %MON surfExpan_theta_mean         =   2.3117105175085E-26
(PID.TID 0000.0001) %MON surfExpan_salt_mean          =   3.4741113718691E-26
(PID.TID 0000.0001) // =======================================================
(PID.TID 0000.0001) // End MONITOR dynamic field statistics
(PID.TID 0000.0001) // =======================================================
 cg2d: Sum(rhs),rhsMax =  -1.58055880646686E-03  2.57334802153419E-09
 cg2d: Sum(rhs),rhsMax =  -1.58218264732169E-03  2.57070757578268E-09
 cg2d: Sum(rhs),rhsMax =  -1.58382821867500E-03  2.56803729707663E-09
 cg2d: Sum(rhs),rhsMax =  -1.58549631100936E-03  2.56533611491164E-09
 cg2d: Sum(rhs),rhsMax =  -1.58718770760444E-03  2.56260296983732E-09
 cg2d: Sum(rhs),rhsMax =  -1.58890319266290E-03  2.55983681371768E-09
 cg2d: Sum(rhs),rhsMax =  -1.59064357508503E-03  2.55703660998883E-09
 cg2d: Sum(rhs),rhsMax =  -1.59240962580489E-03  2.55420133391414E-09
 cg2d: Sum(rhs),rhsMax =  -1.59420214653649E-03  2.55132997283616E-09
 cg2d: Sum(rhs),rhsMax =  -1.59602193265041E-03  2.54842152642596E-09
 cg2d: Sum(rhs),rhsMax =  -1.59786976961079E-03  2.54547500692893E-09
 cg2d: Sum(rhs),rhsMax =  -1.59974645952102E-03  2.54248943940781E-09
 cg2d: Sum(rhs),rhsMax =  -1.60165278615172E-03  2.53946386198254E-09
 cg2d: Sum(rhs),rhsMax =  -1.60358955705535E-03  2.53639732606686E-09
 cg2d: Sum(rhs),rhsMax =  -1.60555755657603E-03  2.53328889660136E-09
 cg2d: Sum(rhs),rhsMax =  -1.60755759089316E-03  2.53013765228374E-09
(PID.TID 0000.0001)      cg2d_init_res =   1.68886648914112E-01
(PID.TID 0000.0001)      cg2d_iters(min,last) =      -1     542
(PID.TID 0000.0001)      cg2d_last_res =   9.79967560086160E-08
(PID.TID 0000.0001) // =======================================================
(PID.TID 0000.0001) // Begin MONITOR dynamic field statistics
(PID.TID 0000.0001) // =======================================================
(PID.TID 0000.0001) %MON time_tsnumber                =                   656
(PID.TID 0000.0001) %MON time_secondsf                =   3.5424000000000E+06
(PID.TID 0000.0001) %MON dynstat_eta_max              =   1.8978670690275E-08
(PID.TID 0000.0001) %MON dynstat_eta_min              =  -1.7662192157013E-08
(PID.TID 0000.0001) %MON dynstat_eta_mean             =   3.9197474079702E-13
(PID.TID 0000.0001) %MON dynstat_eta_sd               =   6.2150493614163E-09
(PID.TID 0000.0001) %MON dynstat_eta_del2             =   1.5092816822510E-13
(PID.TID 0000.0001) %MON dynstat_uvel_max             =   1.9149894606226E-08
(PID.TID 0000.0001) %MON dynstat_uvel_min             =  -2.1428537099790E-08
(PID.TID 0000.0001) %MON dynstat_uvel_mean            =  -2.0203344210254E-13
(PID.TID 0000.0001) %MON dynstat_uvel_sd              =   5.9613300448387E-09
(PID.TID 0000.0001) %MON dynstat_uvel_del2            =   4.3949632631635E-13
(PID.TID 0000.0001) %MON dynstat_vvel_max             =   2.0006576424208E-08
(PID.TID 0000.0001) %MON dynstat_vvel_min             =  -1.7723701335450E-08
(PID.TID 0000.0001) %MON dynstat_vvel_mean            =  -4.1736264023832E-14
(PID.TID 0000.0001) %MON dynstat_vvel_sd              =   5.9101172861941E-09
(PID.TID 0000.0001) %MON dynstat_vvel_del2            =   5.1238698191747E-13
(PID.TID 0000.0001) %MON dynstat_wvel_max             =   1.9542672611284E-14
(PID.TID 0000.0001) %MON dynstat_wvel_min             =  -2.7675032886476E-14
(PID.TID 0000.0001) %MON dynstat_wvel_mean            =   7.4368858991879E-28
(PID.TID 0000.0001) %MON dynstat_wvel_sd              =   9.9860787281795E-15
(PID.TID 0000.0001) %MON dynstat_wvel_del2            =   1.1498877842487E-19
(PID.TID 0000.0001) %MON dynstat_theta_max            =   2.0000000000000E+01
(PID.TID 0000.0001) %MON dynstat_theta_min            =   2.0000000000000E+01
(PID.TID 0000.0001) %MON dynstat_theta_mean           =   2.0000000000000E+01
(PID.TID 0000.0001) %MON dynstat_theta_sd             =   0.0000000000000E+00
(PID.TID 0000.0001) %MON dynstat_theta_del2           =   0.0000000000000E+00
(PID.TID 0000.0001) %MON dynstat_salt_max             =   3.0000000000000E+01
(PID.TID 0000.0001) %MON dynstat_salt_min             =   3.0000000000000E+01
(PID.TID 0000.0001) %MON dynstat_salt_mean            =   3.0000000000000E+01
(PID.TID 0000.0001) %MON dynstat_salt_sd              =   0.0000000000000E+00
(PID.TID 0000.0001) %MON dynstat_salt_del2            =   0.0000000000000E+00
(PID.TID 0000.0001) %MON trAdv_CFL_u_max              =   2.3141107437582E-08
(PID.TID 0000.0001) %MON trAdv_CFL_v_max              =   2.1634438538824E-08
(PID.TID 0000.0001) %MON trAdv_CFL_w_max              =   2.1229028543068E-14
(PID.TID 0000.0001) %MON advcfl_uvel_max              =   2.3142820067773E-08
(PID.TID 0000.0001) %MON advcfl_vvel_max              =   2.1607102538145E-08
(PID.TID 0000.0001) %MON advcfl_wvel_max              =   5.9778071034788E-14
(PID.TID 0000.0001) %MON advcfl_W_hf_max              =   0.0000000000000E+00
(PID.TID 0000.0001) %MON pe_b_mean                    =   3.7892928782834E-20
(PID.TID 0000.0001) %MON ke_max                       =   2.2950224377163E-16
(PID.TID 0000.0001) %MON ke_mean                      =   3.5090245648869E-17
(PID.TID 0000.0001) %MON ke_vol                       =   7.5645000000000E+15
(PID.TID 0000.0001) %MON vort_r_min                   =  -7.4811064448567E-13
(PID.TID 0000.0001) %MON vort_r_max                   =   1.1014643398256E-12
(PID.TID 0000.0001) %MON vort_a_mean                  =   8.2300000000000E-05
(PID.TID 0000.0001) %MON vort_a_sd                    =   7.1297555115625E-06
(PID.TID 0000.0001) %MON vort_p_mean                  =   8.3303658536585E-05
(PID.TID 0000.0001) %MON vort_p_sd                    =   1.7411470226926E-05
(PID.TID 0000.0001) %MON surfExpan_theta_mean         =   1.4547642222621E-26
(PID.TID 0000.0001) %MON surfExpan_salt_mean          =   2.1726378860735E-26
(PID.TID 0000.0001) // =======================================================
(PID.TID 0000.0001) // End MONITOR dynamic field statistics
(PID.TID 0000.0001) // =======================================================
 cg2d: Sum(rhs),rhsMax =  -1.60959045794294E-03  2.52694268579540E-09
 cg2d: Sum(rhs),rhsMax =  -1.61165696318159E-03  2.52370310402476E-09
 cg2d: Sum(rhs),rhsMax =  -1.61375790776481E-03  2.52041802828696E-09
 cg2d: Sum(rhs),rhsMax =  -1.61589409260629E-03  2.51708659454027E-09
 cg2d: Sum(rhs),rhsMax =  -1.61806632264695E-03  2.51370795359866E-09
 cg2d: Sum(rhs),rhsMax =  -1.62027540385389E-03  2.51028127134110E-09
 cg2d: Sum(rhs),rhsMax =  -1.62252214371754E-03  2.50680572891699E-09
 cg2d: Sum(rhs),rhsMax =  -1.62480735886249E-03  2.50328052294800E-09
 cg2d: Sum(rhs),rhsMax =  -1.62713185365224E-03  2.49970486572606E-09
 cg2d: Sum(rhs),rhsMax =  -1.62949645196033E-03  2.49607798540767E-09
 cg2d: Sum(rhs),rhsMax =  -1.63190196004772E-03  2.49239912620447E-09
 cg2d: Sum(rhs),rhsMax =  -1.63434919533616E-03  2.48866754856957E-09
 cg2d: Sum(rhs),rhsMax =  -1.63683898748584E-03  2.48488252938045E-09
 cg2d: Sum(rhs),rhsMax =  -1.63937214065166E-03  2.48104336211767E-09
 cg2d: Sum(rhs),rhsMax =  -1.64194950278319E-03  2.47714935703954E-09
 cg2d: Sum(rhs),rhsMax =  -1.64457187888057E-03  2.47319984135289E-09
(PID.TID 0000.0001)      cg2d_init_res =   1.68856467635102E-01
(PID.TID 0000.0001)      cg2d_iters(min,last) =      -1     543
(PID.TID 0000.0001)      cg2d_last_res =   9.01789502084985E-08
(PID.TID 0000.0001) // =======================================================
(PID.TID 0000.0001) // Begin MONITOR dynamic field statistics
(PID.TID 0000.0001) // =======================================================
(PID.TID 0000.0001) %MON time_tsnumber                =                   672
(PID.TID 0000.0001) %MON time_secondsf                =   3.6288000000000E+06
(PID.TID 0000.0001) %MON dynstat_eta_max              =   1.8588814141304E-08
(PID.TID 0000.0001) %MON dynstat_eta_min              =  -1.7450355979321E-08
(PID.TID 0000.0001) %MON dynstat_eta_mean             =   3.9197597136110E-13
(PID.TID 0000.0001) %MON dynstat_eta_sd               =   6.1047449434009E-09
(PID.TID 0000.0001) %MON dynstat_eta_del2             =   1.4665773416883E-13
(PID.TID 0000.0001) %MON dynstat_uvel_max             =   1.8418255922238E-08
(PID.TID 0000.0001) %MON dynstat_uvel_min             =  -2.1468713155090E-08
(PID.TID 0000.0001) %MON dynstat_uvel_mean            =  -1.3456008173545E-13
(PID.TID 0000.0001) %MON dynstat_uvel_sd              =   5.8426946494230E-09
(PID.TID 0000.0001) %MON dynstat_uvel_del2            =   4.2084885927968E-13
(PID.TID 0000.0001) %MON dynstat_vvel_max             =   1.9580646894048E-08
(PID.TID 0000.0001) %MON dynstat_vvel_min             =  -1.7576003071869E-08
(PID.TID 0000.0001) %MON dynstat_vvel_mean            =  -2.6878206459038E-14
(PID.TID 0000.0001) %MON dynstat_vvel_sd              =   5.8034710853393E-09
(PID.TID 0000.0001) %MON dynstat_vvel_del2            =   4.9359632852888E-13
(PID.TID 0000.0001) %MON dynstat_wvel_max             =   1.8081049464325E-14
(PID.TID 0000.0001) %MON dynstat_wvel_min             =  -2.7741300540618E-14
(PID.TID 0000.0001) %MON dynstat_wvel_mean            =  -1.1277956564814E-27
(PID.TID 0000.0001) %MON dynstat_wvel_sd              =   9.9557235472072E-15
(PID.TID 0000.0001) %MON dynstat_wvel_del2            =   1.1150370290940E-19
(PID.TID 0000.0001) %MON dynstat_theta_max            =   2.0000000000000E+01
(PID.TID 0000.0001) %MON dynstat_theta_min            =   2.0000000000000E+01
(PID.TID 0000.0001) %MON dynstat_theta_mean           =   2.0000000000000E+01
(PID.TID 0000.0001) %MON dynstat_theta_sd             =   0.0000000000000E+00
(PID.TID 0000.0001) %MON dynstat_theta_del2           =   0.0000000000000E+00
(PID.TID 0000.0001) %MON dynstat_salt_max             =   3.0000000000000E+01
(PID.TID 0000.0001) %MON dynstat_salt_min             =   3.0000000000000E+01
(PID.TID 0000.0001) %MON dynstat_salt_mean            =   3.0000000000000E+01
(PID.TID 0000.0001) %MON dynstat_salt_sd              =   0.0000000000000E+00
(PID.TID 0000.0001) %MON dynstat_salt_del2            =   0.0000000000000E+00
(PID.TID 0000.0001) %MON trAdv_CFL_u_max              =   2.3180973938075E-08
(PID.TID 0000.0001) %MON trAdv_CFL_v_max              =   2.1177399106449E-08
(PID.TID 0000.0001) %MON trAdv_CFL_w_max              =   1.9616802025979E-14
(PID.TID 0000.0001) %MON advcfl_uvel_max              =   2.3186210207497E-08
(PID.TID 0000.0001) %MON advcfl_vvel_max              =   2.1147098645572E-08
(PID.TID 0000.0001) %MON advcfl_wvel_max              =   5.9921209167735E-14
(PID.TID 0000.0001) %MON advcfl_W_hf_max              =   0.0000000000000E+00
(PID.TID 0000.0001) %MON pe_b_mean                    =   3.6559820669048E-20
(PID.TID 0000.0001) %MON ke_max                       =   2.3044999862753E-16
(PID.TID 0000.0001) %MON ke_mean                      =   3.3770838554432E-17
(PID.TID 0000.0001) %MON ke_vol                       =   7.5645000000000E+15
(PID.TID 0000.0001) %MON vort_r_min                   =  -7.5402971710432E-13
(PID.TID 0000.0001) %MON vort_r_max                   =   1.0787747415660E-12
(PID.TID 0000.0001) %MON vort_a_mean                  =   8.2300000000000E-05
(PID.TID 0000.0001) %MON vort_a_sd                    =   7.1297555115656E-06
(PID.TID 0000.0001) %MON vort_p_mean                  =   8.3303658536585E-05
(PID.TID 0000.0001) %MON vort_p_sd                    =   1.7411470226572E-05
(PID.TID 0000.0001) %MON surfExpan_theta_mean         =  -2.2765340997349E-26
(PID.TID 0000.0001) %MON surfExpan_salt_mean          =  -3.4138568665904E-26
(PID.TID 0000.0001) // =======================================================
(PID.TID 0000.0001) // End MONITOR dynamic field statistics
(PID.TID 0000.0001) // =======================================================
 cg2d: Sum(rhs),rhsMax =  -1.64724008737908E-03  2.46919415904415E-09
 cg2d: Sum(rhs),rhsMax =  -1.64995497578819E-03  2.46513167282305E-09
 cg2d: Sum(rhs),rhsMax =  -1.65271739479830E-03  2.46101176035002E-09
 cg2d: Sum(rhs),rhsMax =  -1.65552817735719E-03  2.45683381919420E-09
 cg2d: Sum(rhs),rhsMax =  -1.65838816347842E-03  2.45259726310429E-09
 cg2d: Sum(rhs),rhsMax =  -1.66129820671806E-03  2.44830152486221E-09
 cg2d: Sum(rhs),rhsMax =  -1.66425915205055E-03  2.44394605428175E-09
 cg2d: Sum(rhs),rhsMax =  -1.66727185749199E-03  2.43953032021039E-09
 cg2d: Sum(rhs),rhsMax =  -1.67033717402763E-03  2.43505380905049E-09
 cg2d: Sum(rhs),rhsMax =  -1.67345596573379E-03  2.43051602624555E-09
 cg2d: Sum(rhs),rhsMax =  -1.67662909879454E-03  2.42591649531442E-09
 cg2d: Sum(rhs),rhsMax =  -1.67985744346296E-03  2.42125475877854E-09
 cg2d: Sum(rhs),rhsMax =  -1.68314186890900E-03  2.41653037776178E-09
 cg2d: Sum(rhs),rhsMax =  -1.68648326322102E-03  2.41174293231604E-09
 cg2d: Sum(rhs),rhsMax =  -1.68988250925808E-03  2.40689202161917E-09
 cg2d: Sum(rhs),rhsMax =  -1.69334049663203E-03  2.40197726367798E-09
(PID.TID 0000.0001)      cg2d_init_res =   1.71061535991731E-01
(PID.TID 0000.0001)      cg2d_iters(min,last) =      -1     543
(PID.TID 0000.0001)      cg2d_last_res =   9.20755209611640E-08
(PID.TID 0000.0001) // =======================================================
(PID.TID 0000.0001) // Begin MONITOR dynamic field statistics
(PID.TID 0000.0001) // =======================================================
(PID.TID 0000.0001) %MON time_tsnumber                =                   688
(PID.TID 0000.0001) %MON time_secondsf                =   3.7152000000000E+06
(PID.TID 0000.0001) %MON dynstat_eta_max              =   1.7899736685329E-08
(PID.TID 0000.0001) %MON dynstat_eta_min              =  -1.7245211169101E-08
(PID.TID 0000.0001) %MON dynstat_eta_mean             =   3.9197697369110E-13
(PID.TID 0000.0001) %MON dynstat_eta_sd               =   5.9885898820157E-09
(PID.TID 0000.0001) %MON dynstat_eta_del2             =   1.4259110456642E-13
(PID.TID 0000.0001) %MON dynstat_uvel_max             =   1.8345872567439E-08
(PID.TID 0000.0001) %MON dynstat_uvel_min             =  -2.1543091197830E-08
(PID.TID 0000.0001) %MON dynstat_uvel_mean            =  -5.6522848794686E-14
(PID.TID 0000.0001) %MON dynstat_uvel_sd              =   5.7319852486518E-09
(PID.TID 0000.0001) %MON dynstat_uvel_del2            =   4.0404711477118E-13
(PID.TID 0000.0001) %MON dynstat_vvel_max             =   1.9096395070657E-08
(PID.TID 0000.0001) %MON dynstat_vvel_min             =  -1.7491062455795E-08
(PID.TID 0000.0001) %MON dynstat_vvel_mean            =  -1.3013452416646E-14
(PID.TID 0000.0001) %MON dynstat_vvel_sd              =   5.6980551217734E-09
(PID.TID 0000.0001) %MON dynstat_vvel_del2            =   4.7476352797081E-13
(PID.TID 0000.0001) %MON dynstat_wvel_max             =   1.6642691187396E-14
(PID.TID 0000.0001) %MON dynstat_wvel_min             =  -2.8371177129838E-14
(PID.TID 0000.0001) %MON dynstat_wvel_mean            =  -2.4322570440840E-27
(PID.TID 0000.0001) %MON dynstat_wvel_sd              =   9.9204833905490E-15
(PID.TID 0000.0001) %MON dynstat_wvel_del2            =   1.0889969112631E-19
(PID.TID 0000.0001) %MON dynstat_theta_max            =   2.0000000000000E+01
(PID.TID 0000.0001) %MON dynstat_theta_min            =   2.0000000000000E+01
(PID.TID 0000.0001) %MON dynstat_theta_mean           =   2.0000000000000E+01
(PID.TID 0000.0001) %MON dynstat_theta_sd             =   0.0000000000000E+00
(PID.TID 0000.0001) %MON dynstat_theta_del2           =   0.0000000000000E+00
(PID.TID 0000.0001) %MON dynstat_salt_max             =   3.0000000000000E+01
(PID.TID 0000.0001) %MON dynstat_salt_min             =   3.0000000000000E+01
(PID.TID 0000.0001) %MON dynstat_salt_mean            =   3.0000000000000E+01
(PID.TID 0000.0001) %MON dynstat_salt_sd              =   0.0000000000000E+00
(PID.TID 0000.0001) %MON dynstat_salt_del2            =   0.0000000000000E+00
(PID.TID 0000.0001) %MON trAdv_CFL_u_max              =   2.3259581414006E-08
(PID.TID 0000.0001) %MON trAdv_CFL_v_max              =   2.0659150439540E-08
(PID.TID 0000.0001) %MON trAdv_CFL_w_max              =   1.8080187476777E-14
(PID.TID 0000.0001) %MON advcfl_uvel_max              =   2.3266538493657E-08
(PID.TID 0000.0001) %MON advcfl_vvel_max              =   2.0624106676310E-08
(PID.TID 0000.0001) %MON advcfl_wvel_max              =   6.1281742600450E-14
(PID.TID 0000.0001) %MON advcfl_W_hf_max              =   0.0000000000000E+00
(PID.TID 0000.0001) %MON pe_b_mean                    =   3.5181807958983E-20
(PID.TID 0000.0001) %MON ke_max                       =   2.3207324527596E-16
(PID.TID 0000.0001) %MON ke_mean                      =   3.2528972217275E-17
(PID.TID 0000.0001) %MON ke_vol                       =   7.5645000000000E+15
(PID.TID 0000.0001) %MON vort_r_min                   =  -7.5792070833597E-13
(PID.TID 0000.0001) %MON vort_r_max                   =   1.0509758849774E-12
(PID.TID 0000.0001) %MON vort_a_mean                  =   8.2299999999999E-05
(PID.TID 0000.0001) %MON vort_a_sd                    =   7.1297555115685E-06
(PID.TID 0000.0001) %MON vort_p_mean                  =   8.3303658536585E-05
(PID.TID 0000.0001) %MON vort_p_sd                    =   1.7411470226240E-05
(PID.TID 0000.0001) %MON surfExpan_theta_mean         =  -4.9017821851924E-26
(PID.TID 0000.0001) %MON surfExpan_salt_mean          =  -7.3694735204053E-26
(PID.TID 0000.0001) // =======================================================
(PID.TID 0000.0001) // End MONITOR dynamic field statistics
(PID.TID 0000.0001) // =======================================================
 cg2d: Sum(rhs),rhsMax =  -1.69685811073580E-03  2.39699829612844E-09
 cg2d: Sum(rhs),rhsMax =  -1.70043626109354E-03  2.39195477532945E-09
 cg2d: Sum(rhs),rhsMax =  -1.70407584626029E-03  2.38684637773418E-09
 cg2d: Sum(rhs),rhsMax =  -1.70777777480159E-03  2.38167279842239E-09
 cg2d: Sum(rhs),rhsMax =  -1.71154297203320E-03  2.37643375298047E-09
 cg2d: Sum(rhs),rhsMax =  -1.71537235779945E-03  2.37112897554600E-09
 cg2d: Sum(rhs),rhsMax =  -1.71926685950792E-03  2.36575822111421E-09
 cg2d: Sum(rhs),rhsMax =  -1.72322742729600E-03  2.36032126318236E-09
 cg2d: Sum(rhs),rhsMax =  -1.72725497482376E-03  2.35481789639270E-09
 cg2d: Sum(rhs),rhsMax =  -1.73135047348281E-03  2.34924793386596E-09
 cg2d: Sum(rhs),rhsMax =  -1.73551487787383E-03  2.34361121009357E-09
 cg2d: Sum(rhs),rhsMax =  -1.73974914306216E-03  2.33790757804448E-09
 cg2d: Sum(rhs),rhsMax =  -1.74405425415823E-03  2.33213691222612E-09
 cg2d: Sum(rhs),rhsMax =  -1.74843117360151E-03  2.32629910564008E-09
 cg2d: Sum(rhs),rhsMax =  -1.75288090042216E-03  2.32039407294149E-09
 cg2d: Sum(rhs),rhsMax =  -1.75740442533255E-03  2.31442174730897E-09
(PID.TID 0000.0001)      cg2d_init_res =   1.75645171441484E-01
(PID.TID 0000.0001)      cg2d_iters(min,last) =      -1     543
(PID.TID 0000.0001)      cg2d_last_res =   9.15820325910356E-08
(PID.TID 0000.0001) // =======================================================
(PID.TID 0000.0001) // Begin MONITOR dynamic field statistics
(PID.TID 0000.0001) // =======================================================
(PID.TID 0000.0001) %MON time_tsnumber                =                   704
(PID.TID 0000.0001) %MON time_secondsf                =   3.8016000000000E+06
(PID.TID 0000.0001) %MON dynstat_eta_max              =   1.6937284788237E-08
(PID.TID 0000.0001) %MON dynstat_eta_min              =  -1.7016282387873E-08
(PID.TID 0000.0001) %MON dynstat_eta_mean             =   3.9197789728283E-13
(PID.TID 0000.0001) %MON dynstat_eta_sd               =   5.8687314747913E-09
(PID.TID 0000.0001) %MON dynstat_eta_del2             =   1.3868049710426E-13
(PID.TID 0000.0001) %MON dynstat_uvel_max             =   1.8292524991516E-08
(PID.TID 0000.0001) %MON dynstat_uvel_min             =  -2.1620445146431E-08
(PID.TID 0000.0001) %MON dynstat_uvel_mean            =   2.7430937144606E-14
(PID.TID 0000.0001) %MON dynstat_uvel_sd              =   5.6299513123731E-09
(PID.TID 0000.0001) %MON dynstat_uvel_del2            =   3.8878349437459E-13
(PID.TID 0000.0001) %MON dynstat_vvel_max             =   1.8530364317737E-08
(PID.TID 0000.0001) %MON dynstat_vvel_min             =  -1.7462022867472E-08
(PID.TID 0000.0001) %MON dynstat_vvel_mean            =  -4.4396441857194E-16
(PID.TID 0000.0001) %MON dynstat_vvel_sd              =   5.5927874922569E-09
(PID.TID 0000.0001) %MON dynstat_vvel_del2            =   4.5590238275029E-13
(PID.TID 0000.0001) %MON dynstat_wvel_max             =   1.5742869021729E-14
(PID.TID 0000.0001) %MON dynstat_wvel_min             =  -2.9465819186836E-14
(PID.TID 0000.0001) %MON dynstat_wvel_mean            =   4.7532918149380E-28
(PID.TID 0000.0001) %MON dynstat_wvel_sd              =   9.8854136199939E-15
(PID.TID 0000.0001) %MON dynstat_wvel_del2            =   1.0698642444040E-19
(PID.TID 0000.0001) %MON dynstat_theta_max            =   2.0000000000000E+01
(PID.TID 0000.0001) %MON dynstat_theta_min            =   2.0000000000000E+01
(PID.TID 0000.0001) %MON dynstat_theta_mean           =   2.0000000000000E+01
(PID.TID 0000.0001) %MON dynstat_theta_sd             =   0.0000000000000E+00
(PID.TID 0000.0001) %MON dynstat_theta_del2           =   0.0000000000000E+00
(PID.TID 0000.0001) %MON dynstat_salt_max             =   3.0000000000000E+01
(PID.TID 0000.0001) %MON dynstat_salt_min             =   3.0000000000000E+01
(PID.TID 0000.0001) %MON dynstat_salt_mean            =   3.0000000000000E+01
(PID.TID 0000.0001) %MON dynstat_salt_sd              =   0.0000000000000E+00
(PID.TID 0000.0001) %MON dynstat_salt_del2            =   0.0000000000000E+00
(PID.TID 0000.0001) %MON trAdv_CFL_u_max              =   2.3344283391996E-08
(PID.TID 0000.0001) %MON trAdv_CFL_v_max              =   2.0053974214493E-08
(PID.TID 0000.0001) %MON trAdv_CFL_w_max              =   1.6945377860100E-14
(PID.TID 0000.0001) %MON advcfl_uvel_max              =   2.3350080758145E-08
(PID.TID 0000.0001) %MON advcfl_vvel_max              =   2.0012793463156E-08
(PID.TID 0000.0001) %MON advcfl_wvel_max              =   6.3646169443565E-14
(PID.TID 0000.0001) %MON advcfl_W_hf_max              =   0.0000000000000E+00
(PID.TID 0000.0001) %MON pe_b_mean                    =   3.3787611100593E-20
(PID.TID 0000.0001) %MON ke_max                       =   2.3379121477307E-16
(PID.TID 0000.0001) %MON ke_mean                      =   3.1359812621804E-17
(PID.TID 0000.0001) %MON ke_vol                       =   7.5645000000000E+15
(PID.TID 0000.0001) %MON vort_r_min                   =  -7.5814708445445E-13
(PID.TID 0000.0001) %MON vort_r_max                   =   1.0169501690524E-12
(PID.TID 0000.0001) %MON vort_a_mean                  =   8.2299999999999E-05
(PID.TID 0000.0001) %MON vort_a_sd                    =   7.1297555115684E-06
(PID.TID 0000.0001) %MON vort_p_mean                  =   8.3303658536585E-05
(PID.TID 0000.0001) %MON vort_p_sd                    =   1.7411470225930E-05
(PID.TID 0000.0001) %MON surfExpan_theta_mean         =   9.2929899971257E-27
(PID.TID 0000.0001) %MON surfExpan_salt_mean          =   1.3972862427233E-26
(PID.TID 0000.0001) // =======================================================
(PID.TID 0000.0001) // End MONITOR dynamic field statistics
(PID.TID 0000.0001) // =======================================================
 cg2d: Sum(rhs),rhsMax =  -1.76200275283673E-03  2.30838208364200E-09
 cg2d: Sum(rhs),rhsMax =  -1.76667689633890E-03  2.30227505540023E-09
 cg2d: Sum(rhs),rhsMax =  -1.77142786906526E-03  2.29610065778798E-09
 cg2d: Sum(rhs),rhsMax =  -1.77625671244239E-03  2.28985890461027E-09
 cg2d: Sum(rhs),rhsMax =  -1.78116446244397E-03  2.28354983140108E-09
 cg2d: Sum(rhs),rhsMax =  -1.78615216305929E-03  2.27717349233552E-09
 cg2d: Sum(rhs),rhsMax =  -1.79122086910788E-03  2.27072996326556E-09
 cg2d: Sum(rhs),rhsMax =  -1.79637164906213E-03  2.26421933872160E-09
 cg2d: Sum(rhs),rhsMax =  -1.80160559042356E-03  2.25764173482565E-09
 cg2d: Sum(rhs),rhsMax =  -1.80692377099947E-03  2.25099728640964E-09
 cg2d: Sum(rhs),rhsMax =  -1.81232728703983E-03  2.24428614978125E-09
 cg2d: Sum(rhs),rhsMax =  -1.81781724802826E-03  2.23750849998103E-09
 cg2d: Sum(rhs),rhsMax =  -1.82339477510007E-03  2.23066453338181E-09
 cg2d: Sum(rhs),rhsMax =  -1.82906099971391E-03  2.22375446510169E-09
 cg2d: Sum(rhs),rhsMax =  -1.83481706434051E-03  2.21677853142331E-09
 cg2d: Sum(rhs),rhsMax =  -1.84066411453577E-03  2.20973698738107E-09
(PID.TID 0000.0001)      cg2d_init_res =   1.82754903414935E-01
(PID.TID 0000.0001)      cg2d_iters(min,last) =      -1     542
(PID.TID 0000.0001)      cg2d_last_res =   9.87695600270987E-08
(PID.TID 0000.0001) // =======================================================
(PID.TID 0000.0001) // Begin MONITOR dynamic field statistics
(PID.TID 0000.0001) // =======================================================
(PID.TID 0000.0001) %MON time_tsnumber                =                   720
(PID.TID 0000.0001) %MON time_secondsf                =   3.8880000000000E+06
(PID.TID 0000.0001) %MON dynstat_eta_max              =   1.5747936292565E-08
(PID.TID 0000.0001) %MON dynstat_eta_min              =  -1.6798778327392E-08
(PID.TID 0000.0001) %MON dynstat_eta_mean             =   3.9197872038202E-13
(PID.TID 0000.0001) %MON dynstat_eta_sd               =   5.7480363112983E-09
(PID.TID 0000.0001) %MON dynstat_eta_del2             =   1.3489013937996E-13
(PID.TID 0000.0001) %MON dynstat_uvel_max             =   1.8178666482953E-08
(PID.TID 0000.0001) %MON dynstat_uvel_min             =  -2.1657011543294E-08
(PID.TID 0000.0001) %MON dynstat_uvel_mean            =   1.1232598785134E-13
(PID.TID 0000.0001) %MON dynstat_uvel_sd              =   5.5365147037301E-09
(PID.TID 0000.0001) %MON dynstat_uvel_del2            =   3.7473939444640E-13
(PID.TID 0000.0001) %MON dynstat_vvel_max             =   1.7865593915562E-08
(PID.TID 0000.0001) %MON dynstat_vvel_min             =  -1.7479069230721E-08
(PID.TID 0000.0001) %MON dynstat_vvel_mean            =   1.0614606445276E-14
(PID.TID 0000.0001) %MON dynstat_vvel_sd              =   5.4874747332581E-09
(PID.TID 0000.0001) %MON dynstat_vvel_del2            =   4.3712285442420E-13
(PID.TID 0000.0001) %MON dynstat_wvel_max             =   1.6508053327646E-14
(PID.TID 0000.0001) %MON dynstat_wvel_min             =  -3.0181739483215E-14
(PID.TID 0000.0001) %MON dynstat_wvel_mean            =  -9.3437917737172E-28
(PID.TID 0000.0001) %MON dynstat_wvel_sd              =   9.8529293351125E-15
(PID.TID 0000.0001) %MON dynstat_wvel_del2            =   1.0571899853268E-19
(PID.TID 0000.0001) %MON dynstat_theta_max            =   2.0000000000000E+01
(PID.TID 0000.0001) %MON dynstat_theta_min            =   2.0000000000000E+01
(PID.TID 0000.0001) %MON dynstat_theta_mean           =   2.0000000000000E+01
(PID.TID 0000.0001) %MON dynstat_theta_sd             =   0.0000000000000E+00
(PID.TID 0000.0001) %MON dynstat_theta_del2           =   0.0000000000000E+00
(PID.TID 0000.0001) %MON dynstat_salt_max             =   3.0000000000000E+01
(PID.TID 0000.0001) %MON dynstat_salt_min             =   3.0000000000000E+01
(PID.TID 0000.0001) %MON dynstat_salt_mean            =   3.0000000000000E+01
(PID.TID 0000.0001) %MON dynstat_salt_sd              =   0.0000000000000E+00
(PID.TID 0000.0001) %MON dynstat_salt_del2            =   0.0000000000000E+00
(PID.TID 0000.0001) %MON trAdv_CFL_u_max              =   2.3390399593403E-08
(PID.TID 0000.0001) %MON trAdv_CFL_v_max              =   1.9343071682855E-08
(PID.TID 0000.0001) %MON trAdv_CFL_w_max              =   1.7786184607127E-14
(PID.TID 0000.0001) %MON advcfl_uvel_max              =   2.3389572466757E-08
(PID.TID 0000.0001) %MON advcfl_vvel_max              =   1.9294841428807E-08
(PID.TID 0000.0001) %MON advcfl_wvel_max              =   6.5192557283744E-14
(PID.TID 0000.0001) %MON advcfl_W_hf_max              =   0.0000000000000E+00
(PID.TID 0000.0001) %MON pe_b_mean                    =   3.2412163079448E-20
(PID.TID 0000.0001) %MON ke_max                       =   2.3454346807190E-16
(PID.TID 0000.0001) %MON ke_mean                      =   3.0259180154972E-17
(PID.TID 0000.0001) %MON ke_vol                       =   7.5645000000000E+15
(PID.TID 0000.0001) %MON vort_r_min                   =  -7.5326861991066E-13
(PID.TID 0000.0001) %MON vort_r_max                   =   9.7606303701211E-13
(PID.TID 0000.0001) %MON vort_a_mean                  =   8.2300000000000E-05
(PID.TID 0000.0001) %MON vort_a_sd                    =   7.1297555115542E-06
(PID.TID 0000.0001) %MON vort_p_mean                  =   8.3303658536586E-05
(PID.TID 0000.0001) %MON vort_p_sd                    =   1.7411470225641E-05
(PID.TID 0000.0001) %MON surfExpan_theta_mean         =  -1.9071556229972E-26
(PID.TID 0000.0001) %MON surfExpan_salt_mean          =  -2.8608194310988E-26
(PID.TID 0000.0001) // =======================================================
(PID.TID 0000.0001) // End MONITOR dynamic field statistics
(PID.TID 0000.0001) // =======================================================
 cg2d: Sum(rhs),rhsMax =  -1.84660334191651E-03  2.20263010925315E-09
 cg2d: Sum(rhs),rhsMax =  -1.85263595200594E-03  2.19545819208339E-09
 cg2d: Sum(rhs),rhsMax =  -1.85876303346886E-03  2.18822154794910E-09
 cg2d: Sum(rhs),rhsMax =  -1.86498583656440E-03  2.18092051615886E-09
 cg2d: Sum(rhs),rhsMax =  -1.87130557105289E-03  2.17355544827880E-09
 cg2d: Sum(rhs),rhsMax =  -1.87772346308852E-03  2.16612671863566E-09
 cg2d: Sum(rhs),rhsMax =  -1.88424072125515E-03  2.15863471973733E-09
 cg2d: Sum(rhs),rhsMax =  -1.89085862084471E-03  2.15107986594837E-09
 cg2d: Sum(rhs),rhsMax =  -1.89757843460558E-03  2.14346258736508E-09
 cg2d: Sum(rhs),rhsMax =  -1.90440143760177E-03  2.13578333602835E-09
 cg2d: Sum(rhs),rhsMax =  -1.91132891744505E-03  2.12804258122612E-09
 cg2d: Sum(rhs),rhsMax =  -1.91836218736040E-03  2.12024081271858E-09
 cg2d: Sum(rhs),rhsMax =  -1.92550255313834E-03  2.11237853774119E-09
 cg2d: Sum(rhs),rhsMax =  -1.93275135862527E-03  2.10445628361022E-09
 cg2d: Sum(rhs),rhsMax =  -1.94010994686461E-03  2.09647459500832E-09
 cg2d: Sum(rhs),rhsMax =  -1.94757968090278E-03  2.08843403634997E-09
(PID.TID 0000.0001)      cg2d_init_res =   1.92570769794364E-01
(PID.TID 0000.0001)      cg2d_iters(min,last) =      -1     543
(PID.TID 0000.0001)      cg2d_last_res =   9.07555850665967E-08
(PID.TID 0000.0001) // =======================================================
(PID.TID 0000.0001) // Begin MONITOR dynamic field statistics
(PID.TID 0000.0001) // =======================================================
(PID.TID 0000.0001) %MON time_tsnumber                =                   736
(PID.TID 0000.0001) %MON time_secondsf                =   3.9744000000000E+06
(PID.TID 0000.0001) %MON dynstat_eta_max              =   1.4384632526246E-08
(PID.TID 0000.0001) %MON dynstat_eta_min              =  -1.6567473086839E-08
(PID.TID 0000.0001) %MON dynstat_eta_mean             =   3.9197949632104E-13
(PID.TID 0000.0001) %MON dynstat_eta_sd               =   5.6300341418904E-09
(PID.TID 0000.0001) %MON dynstat_eta_del2             =   1.3119604112966E-13
(PID.TID 0000.0001) %MON dynstat_uvel_max             =   1.7990643675533E-08
(PID.TID 0000.0001) %MON dynstat_uvel_min             =  -2.1618495705663E-08
(PID.TID 0000.0001) %MON dynstat_uvel_mean            =   1.9314296974253E-13
(PID.TID 0000.0001) %MON dynstat_uvel_sd              =   5.4506182802754E-09
(PID.TID 0000.0001) %MON dynstat_uvel_del2            =   3.6161447913980E-13
(PID.TID 0000.0001) %MON dynstat_vvel_max             =   1.7092809204667E-08
(PID.TID 0000.0001) %MON dynstat_vvel_min             =  -1.7534998790118E-08
(PID.TID 0000.0001) %MON dynstat_vvel_mean            =   2.0038245048656E-14
(PID.TID 0000.0001) %MON dynstat_vvel_sd              =   5.3829234773363E-09
(PID.TID 0000.0001) %MON dynstat_vvel_del2            =   4.1859334167470E-13
(PID.TID 0000.0001) %MON dynstat_wvel_max             =   1.7060705729266E-14
(PID.TID 0000.0001) %MON dynstat_wvel_min             =  -3.0418179737257E-14
(PID.TID 0000.0001) %MON dynstat_wvel_mean            =  -2.1016576658923E-27
(PID.TID 0000.0001) %MON dynstat_wvel_sd              =   9.8222632564555E-15
(PID.TID 0000.0001) %MON dynstat_wvel_del2            =   1.0475479573906E-19
(PID.TID 0000.0001) %MON dynstat_theta_max            =   2.0000000000000E+01
(PID.TID 0000.0001) %MON dynstat_theta_min            =   2.0000000000000E+01
(PID.TID 0000.0001) %MON dynstat_theta_mean           =   2.0000000000000E+01
(PID.TID 0000.0001) %MON dynstat_theta_sd             =   0.0000000000000E+00
(PID.TID 0000.0001) %MON dynstat_theta_del2           =   0.0000000000000E+00
(PID.TID 0000.0001) %MON dynstat_salt_max             =   3.0000000000000E+01
(PID.TID 0000.0001) %MON dynstat_salt_min             =   3.0000000000000E+01
(PID.TID 0000.0001) %MON dynstat_salt_mean            =   3.0000000000000E+01
(PID.TID 0000.0001) %MON dynstat_salt_sd              =   0.0000000000000E+00
(PID.TID 0000.0001) %MON dynstat_salt_del2            =   0.0000000000000E+00
(PID.TID 0000.0001) %MON trAdv_CFL_u_max              =   2.3354353698648E-08
(PID.TID 0000.0001) %MON trAdv_CFL_v_max              =   1.8931160712852E-08
(PID.TID 0000.0001) %MON trAdv_CFL_w_max              =   1.8395893132395E-14
(PID.TID 0000.0001) %MON advcfl_uvel_max              =   2.3347975362116E-08
(PID.TID 0000.0001) %MON advcfl_vvel_max              =   1.8937798693328E-08
(PID.TID 0000.0001) %MON advcfl_wvel_max              =   6.5703268232475E-14
(PID.TID 0000.0001) %MON advcfl_W_hf_max              =   0.0000000000000E+00
(PID.TID 0000.0001) %MON pe_b_mean                    =   3.1095036185242E-20
(PID.TID 0000.0001) %MON ke_max                       =   2.3362207078520E-16
(PID.TID 0000.0001) %MON ke_mean                      =   2.9223273750549E-17
(PID.TID 0000.0001) %MON ke_vol                       =   7.5645000000000E+15
(PID.TID 0000.0001) %MON vort_r_min                   =  -7.4269122813012E-13
(PID.TID 0000.0001) %MON vort_r_max                   =   9.2820543636968E-13
(PID.TID 0000.0001) %MON vort_a_mean                  =   8.2300000000001E-05
(PID.TID 0000.0001) %MON vort_a_sd                    =   7.1297555115507E-06
(PID.TID 0000.0001) %MON vort_p_mean                  =   8.3303658536586E-05
(PID.TID 0000.0001) %MON vort_p_sd                    =   1.7411470225388E-05
(PID.TID 0000.0001) %MON surfExpan_theta_mean         =  -4.2010164705928E-26
(PID.TID 0000.0001) %MON surfExpan_salt_mean          =  -6.3050442960271E-26
(PID.TID 0000.0001) // =======================================================
(PID.TID 0000.0001) // End MONITOR dynamic field statistics
(PID.TID 0000.0001) // =======================================================
 cg2d: Sum(rhs),rhsMax =  -1.95516194044041E-03  2.08033518929069E-09
 cg2d: Sum(rhs),rhsMax =  -1.96285810352969E-03  2.07217865483248E-09
 cg2d: Sum(rhs),rhsMax =  -1.97066958962049E-03  2.06396505109984E-09
 cg2d: Sum(rhs),rhsMax =  -1.97859781512894E-03  2.05569501513560E-09
 cg2d: Sum(rhs),rhsMax =  -1.98664421036385E-03  2.04736920099853E-09
 cg2d: Sum(rhs),rhsMax =  -1.99481022117454E-03  2.03898828119159E-09
 cg2d: Sum(rhs),rhsMax =  -2.00309733244546E-03  2.03055294513768E-09
 cg2d: Sum(rhs),rhsMax =  -2.01150701599275E-03  2.02206390018903E-09
 cg2d: Sum(rhs),rhsMax =  -2.02004076194294E-03  2.01352187052593E-09
 cg2d: Sum(rhs),rhsMax =  -2.02870008288306E-03  2.00492759771119E-09
 cg2d: Sum(rhs),rhsMax =  -2.03748651742781E-03  1.99628184003823E-09
 cg2d: Sum(rhs),rhsMax =  -2.04640155945962E-03  1.98758537163234E-09
 cg2d: Sum(rhs),rhsMax =  -2.05544680664503E-03  1.97883898653873E-09
 cg2d: Sum(rhs),rhsMax =  -2.06462384818443E-03  1.97004349121494E-09
 cg2d: Sum(rhs),rhsMax =  -2.07393424949013E-03  1.96119971018683E-09
 cg2d: Sum(rhs),rhsMax =  -2.08337964197435E-03  1.95230848372264E-09
(PID.TID 0000.0001)      cg2d_init_res =   2.05328887009894E-01
(PID.TID 0000.0001)      cg2d_iters(min,last) =      -1     544
(PID.TID 0000.0001)      cg2d_last_res =   9.95253328792279E-08
(PID.TID 0000.0001) // =======================================================
(PID.TID 0000.0001) // Begin MONITOR dynamic field statistics
(PID.TID 0000.0001) // =======================================================
(PID.TID 0000.0001) %MON time_tsnumber                =                   752
(PID.TID 0000.0001) %MON time_secondsf                =   4.0608000000000E+06
(PID.TID 0000.0001) %MON dynstat_eta_max              =   1.2921985481174E-08
(PID.TID 0000.0001) %MON dynstat_eta_min              =  -1.6328144027665E-08
(PID.TID 0000.0001) %MON dynstat_eta_mean             =   3.9198027429666E-13
(PID.TID 0000.0001) %MON dynstat_eta_sd               =   5.5186802190272E-09
(PID.TID 0000.0001) %MON dynstat_eta_del2             =   1.2758507718162E-13
(PID.TID 0000.0001) %MON dynstat_uvel_max             =   1.7739046209327E-08
(PID.TID 0000.0001) %MON dynstat_uvel_min             =  -2.1478765216608E-08
(PID.TID 0000.0001) %MON dynstat_uvel_mean            =   2.6510268761959E-13
(PID.TID 0000.0001) %MON dynstat_uvel_sd              =   5.3703017990561E-09
(PID.TID 0000.0001) %MON dynstat_uvel_del2            =   3.4916130428208E-13
(PID.TID 0000.0001) %MON dynstat_vvel_max             =   1.6213525665494E-08
(PID.TID 0000.0001) %MON dynstat_vvel_min             =  -1.7622497611746E-08
(PID.TID 0000.0001) %MON dynstat_vvel_mean            =   2.7795091675805E-14
(PID.TID 0000.0001) %MON dynstat_vvel_sd              =   5.2808509514434E-09
(PID.TID 0000.0001) %MON dynstat_vvel_del2            =   4.0050287135278E-13
(PID.TID 0000.0001) %MON dynstat_wvel_max             =   1.7664866387435E-14
(PID.TID 0000.0001) %MON dynstat_wvel_min             =  -3.0075905390614E-14
(PID.TID 0000.0001) %MON dynstat_wvel_mean            =   1.1489558946222E-28
(PID.TID 0000.0001) %MON dynstat_wvel_sd              =   9.7898173366672E-15
(PID.TID 0000.0001) %MON dynstat_wvel_del2            =   1.0416090290046E-19
(PID.TID 0000.0001) %MON dynstat_theta_max            =   2.0000000000000E+01
(PID.TID 0000.0001) %MON dynstat_theta_min            =   2.0000000000000E+01
(PID.TID 0000.0001) %MON dynstat_theta_mean           =   2.0000000000000E+01
(PID.TID 0000.0001) %MON dynstat_theta_sd             =   0.0000000000000E+00
(PID.TID 0000.0001) %MON dynstat_theta_del2           =   0.0000000000000E+00
(PID.TID 0000.0001) %MON dynstat_salt_max             =   3.0000000000000E+01
(PID.TID 0000.0001) %MON dynstat_salt_min             =   3.0000000000000E+01
(PID.TID 0000.0001) %MON dynstat_salt_mean            =   3.0000000000000E+01
(PID.TID 0000.0001) %MON dynstat_salt_sd              =   0.0000000000000E+00
(PID.TID 0000.0001) %MON dynstat_salt_del2            =   0.0000000000000E+00
(PID.TID 0000.0001) %MON trAdv_CFL_u_max              =   2.3210717986462E-08
(PID.TID 0000.0001) %MON trAdv_CFL_v_max              =   1.9024488680954E-08
(PID.TID 0000.0001) %MON trAdv_CFL_w_max              =   1.9021002031838E-14
(PID.TID 0000.0001) %MON advcfl_uvel_max              =   2.3197066433937E-08
(PID.TID 0000.0001) %MON advcfl_vvel_max              =   1.9032297420685E-08
(PID.TID 0000.0001) %MON advcfl_wvel_max              =   6.4963955643726E-14
(PID.TID 0000.0001) %MON advcfl_W_hf_max              =   0.0000000000000E+00
(PID.TID 0000.0001) %MON pe_b_mean                    =   2.9877170714774E-20
(PID.TID 0000.0001) %MON ke_max                       =   2.3057407728733E-16
(PID.TID 0000.0001) %MON ke_mean                      =   2.8248464273502E-17
(PID.TID 0000.0001) %MON ke_vol                       =   7.5645000000000E+15
(PID.TID 0000.0001) %MON vort_r_min                   =  -7.2524046017850E-13
(PID.TID 0000.0001) %MON vort_r_max                   =   8.7380455352029E-13
(PID.TID 0000.0001) %MON vort_a_mean                  =   8.2299999999999E-05
(PID.TID 0000.0001) %MON vort_a_sd                    =   7.1297555115652E-06
(PID.TID 0000.0001) %MON vort_p_mean                  =   8.3303658536585E-05
(PID.TID 0000.0001) %MON vort_p_sd                    =   1.7411470225174E-05
(PID.TID 0000.0001) %MON surfExpan_theta_mean         =   2.1559264394284E-27
(PID.TID 0000.0001) %MON surfExpan_salt_mean          =   3.2081486251684E-27
(PID.TID 0000.0001) // =======================================================
(PID.TID 0000.0001) // End MONITOR dynamic field statistics
(PID.TID 0000.0001) // =======================================================
 cg2d: Sum(rhs),rhsMax =  -2.09296163854636E-03  1.94337066797773E-09
 cg2d: Sum(rhs),rhsMax =  -2.10268177826031E-03  1.93438713534216E-09
 cg2d: Sum(rhs),rhsMax =  -2.11254182139560E-03  1.92535877202792E-09
 cg2d: Sum(rhs),rhsMax =  -2.12254343280031E-03  1.91628648081742E-09
 cg2d: Sum(rhs),rhsMax =  -2.13268828489672E-03  1.90717117942469E-09
 cg2d: Sum(rhs),rhsMax =  -2.14297810249183E-03  1.89801380013951E-09
 cg2d: Sum(rhs),rhsMax =  -2.15341457491644E-03  1.88881528996493E-09
 cg2d: Sum(rhs),rhsMax =  -2.16399944798837E-03  1.87957661030103E-09
 cg2d: Sum(rhs),rhsMax =  -2.17473446435145E-03  1.87029873674776E-09
 cg2d: Sum(rhs),rhsMax =  -2.18562139129373E-03  1.86098265887602E-09
 cg2d: Sum(rhs),rhsMax =  -2.19666200035515E-03  1.85162938000746E-09
 cg2d: Sum(rhs),rhsMax =  -2.20785808284177E-03  1.84223991698530E-09
 cg2d: Sum(rhs),rhsMax =  -2.21921144115346E-03  1.83281529994470E-09
 cg2d: Sum(rhs),rhsMax =  -2.23072391140509E-03  1.82335657207910E-09
 cg2d: Sum(rhs),rhsMax =  -2.22828391212607E-03  1.82535336165951E-09
 cg2d: Sum(rhs),rhsMax =  -2.22590501597162E-03  1.82730436457861E-09
(PID.TID 0000.0001)      cg2d_init_res =   2.18554196297659E-01
(PID.TID 0000.0001)      cg2d_iters(min,last) =      -1     546
(PID.TID 0000.0001)      cg2d_last_res =   9.92328090345923E-08
(PID.TID 0000.0001) // =======================================================
(PID.TID 0000.0001) // Begin MONITOR dynamic field statistics
(PID.TID 0000.0001) // =======================================================
(PID.TID 0000.0001) %MON time_tsnumber                =                   768
(PID.TID 0000.0001) %MON time_secondsf                =   4.1472000000000E+06
(PID.TID 0000.0001) %MON dynstat_eta_max              =   1.1437081086853E-08
(PID.TID 0000.0001) %MON dynstat_eta_min              =  -1.6085820446968E-08
(PID.TID 0000.0001) %MON dynstat_eta_mean             =   3.9198086625442E-13
(PID.TID 0000.0001) %MON dynstat_eta_sd               =   5.4179366773827E-09
(PID.TID 0000.0001) %MON dynstat_eta_del2             =   1.2405345600926E-13
(PID.TID 0000.0001) %MON dynstat_uvel_max             =   1.7443990514455E-08
(PID.TID 0000.0001) %MON dynstat_uvel_min             =  -2.1220166516700E-08
(PID.TID 0000.0001) %MON dynstat_uvel_mean            =   3.2393466718051E-13
(PID.TID 0000.0001) %MON dynstat_uvel_sd              =   5.2929981964041E-09
(PID.TID 0000.0001) %MON dynstat_uvel_del2            =   3.3721629680642E-13
(PID.TID 0000.0001) %MON dynstat_vvel_max             =   1.5234347355749E-08
(PID.TID 0000.0001) %MON dynstat_vvel_min             =  -1.7733603235824E-08
(PID.TID 0000.0001) %MON dynstat_vvel_mean            =   3.3940996664882E-14
(PID.TID 0000.0001) %MON dynstat_vvel_sd              =   5.1835891528009E-09
(PID.TID 0000.0001) %MON dynstat_vvel_del2            =   3.8302829125356E-13
(PID.TID 0000.0001) %MON dynstat_wvel_max             =   1.8423168661741E-14
(PID.TID 0000.0001) %MON dynstat_wvel_min             =  -2.9135330865682E-14
(PID.TID 0000.0001) %MON dynstat_wvel_mean            =  -1.3534940205778E-27
(PID.TID 0000.0001) %MON dynstat_wvel_sd              =   9.7502806418134E-15
(PID.TID 0000.0001) %MON dynstat_wvel_del2            =   1.0367714346171E-19
(PID.TID 0000.0001) %MON dynstat_theta_max            =   2.0000000000000E+01
(PID.TID 0000.0001) %MON dynstat_theta_min            =   2.0000000000000E+01
(PID.TID 0000.0001) %MON dynstat_theta_mean           =   2.0000000000000E+01
(PID.TID 0000.0001) %MON dynstat_theta_sd             =   0.0000000000000E+00
(PID.TID 0000.0001) %MON dynstat_theta_del2           =   0.0000000000000E+00
(PID.TID 0000.0001) %MON dynstat_salt_max             =   3.0000000000000E+01
(PID.TID 0000.0001) %MON dynstat_salt_min             =   3.0000000000000E+01
(PID.TID 0000.0001) %MON dynstat_salt_mean            =   3.0000000000000E+01
(PID.TID 0000.0001) %MON dynstat_salt_sd              =   0.0000000000000E+00
(PID.TID 0000.0001) %MON dynstat_salt_del2            =   0.0000000000000E+00
(PID.TID 0000.0001) %MON trAdv_CFL_u_max              =   2.2940059534443E-08
(PID.TID 0000.0001) %MON trAdv_CFL_v_max              =   1.9143769496345E-08
(PID.TID 0000.0001) %MON trAdv_CFL_w_max              =   1.9855413215986E-14
(PID.TID 0000.0001) %MON advcfl_uvel_max              =   2.2917779838036E-08
(PID.TID 0000.0001) %MON advcfl_vvel_max              =   1.9152291494690E-08
(PID.TID 0000.0001) %MON advcfl_wvel_max              =   6.2932314669872E-14
(PID.TID 0000.0001) %MON advcfl_W_hf_max              =   0.0000000000000E+00
(PID.TID 0000.0001) %MON pe_b_mean                    =   2.8796311271896E-20
(PID.TID 0000.0001) %MON ke_max                       =   2.2506690126880E-16
(PID.TID 0000.0001) %MON ke_mean                      =   2.7331157514173E-17
(PID.TID 0000.0001) %MON ke_vol                       =   7.5645000000000E+15
(PID.TID 0000.0001) %MON vort_r_min                   =  -7.0116564790324E-13
(PID.TID 0000.0001) %MON vort_r_max                   =   8.1380235928621E-13
(PID.TID 0000.0001) %MON vort_a_mean                  =   8.2300000000000E-05
(PID.TID 0000.0001) %MON vort_a_sd                    =   7.1297555115606E-06
(PID.TID 0000.0001) %MON vort_p_mean                  =   8.3303658536585E-05
(PID.TID 0000.0001) %MON vort_p_sd                    =   1.7411470224988E-05
(PID.TID 0000.0001) %MON surfExpan_theta_mean         =  -2.7166098463308E-26
(PID.TID 0000.0001) %MON surfExpan_salt_mean          =  -4.0772333185352E-26
(PID.TID 0000.0001) // =======================================================
(PID.TID 0000.0001) // End MONITOR dynamic field statistics
(PID.TID 0000.0001) // =======================================================
 cg2d: Sum(rhs),rhsMax =  -2.22359494051410E-03  1.82920293689652E-09
 cg2d: Sum(rhs),rhsMax =  -2.22135412588360E-03  1.83104836538136E-09
 cg2d: Sum(rhs),rhsMax =  -2.21918303502565E-03  1.83283994095846E-09
 cg2d: Sum(rhs),rhsMax =  -2.21708211934826E-03  1.83457695889684E-09
 cg2d: Sum(rhs),rhsMax =  -2.21505184748512E-03  1.83625871899547E-09
 cg2d: Sum(rhs),rhsMax =  -2.21309266617052E-03  1.83788452576841E-09
 cg2d: Sum(rhs),rhsMax =  -2.21120503836618E-03  1.83945368862893E-09
 cg2d: Sum(rhs),rhsMax =  -2.20938944582934E-03  1.84096552207328E-09
 cg2d: Sum(rhs),rhsMax =  -2.20764634204910E-03  1.84241934586338E-09
 cg2d: Sum(rhs),rhsMax =  -2.20597615426627E-03  1.84381448505319E-09
 cg2d: Sum(rhs),rhsMax =  -2.20437940926355E-03  1.84515027036481E-09
 cg2d: Sum(rhs),rhsMax =  -2.20285657584665E-03  1.84642603901378E-09
 cg2d: Sum(rhs),rhsMax =  -2.20140815352649E-03  1.84764113333702E-09
 cg2d: Sum(rhs),rhsMax =  -2.20003461812447E-03  1.84879490205236E-09
 cg2d: Sum(rhs),rhsMax =  -2.19873645831173E-03  1.84988670045011E-09
 cg2d: Sum(rhs),rhsMax =  -2.19724840946447E-03  1.85113977336115E-09
(PID.TID 0000.0001)      cg2d_init_res =   2.14590724686009E-01
(PID.TID 0000.0001)      cg2d_iters(min,last) =      -1     547
(PID.TID 0000.0001)      cg2d_last_res =   8.46659035895547E-08
(PID.TID 0000.0001) // =======================================================
(PID.TID 0000.0001) // Begin MONITOR dynamic field statistics
(PID.TID 0000.0001) // =======================================================
(PID.TID 0000.0001) %MON time_tsnumber                =                   784
(PID.TID 0000.0001) %MON time_secondsf                =   4.2336000000000E+06
(PID.TID 0000.0001) %MON dynstat_eta_max              =   1.0175355434651E-08
(PID.TID 0000.0001) %MON dynstat_eta_min              =  -1.6109927398319E-08
(PID.TID 0000.0001) %MON dynstat_eta_mean             =   3.9198164876230E-13
(PID.TID 0000.0001) %MON dynstat_eta_sd               =   5.3312249727264E-09
(PID.TID 0000.0001) %MON dynstat_eta_del2             =   1.2060471426209E-13
(PID.TID 0000.0001) %MON dynstat_uvel_max             =   1.7118088272522E-08
(PID.TID 0000.0001) %MON dynstat_uvel_min             =  -2.0845877818308E-08
(PID.TID 0000.0001) %MON dynstat_uvel_mean            =   3.6611542506865E-13
(PID.TID 0000.0001) %MON dynstat_uvel_sd              =   5.2159876268927E-09
(PID.TID 0000.0001) %MON dynstat_uvel_del2            =   3.2571890510290E-13
(PID.TID 0000.0001) %MON dynstat_vvel_max             =   1.4170035805787E-08
(PID.TID 0000.0001) %MON dynstat_vvel_min             =  -1.7847876638003E-08
(PID.TID 0000.0001) %MON dynstat_vvel_mean            =   3.8610675610010E-14
(PID.TID 0000.0001) %MON dynstat_vvel_sd              =   5.0936215543670E-09
(PID.TID 0000.0001) %MON dynstat_vvel_del2            =   3.6631153139111E-13
(PID.TID 0000.0001) %MON dynstat_wvel_max             =   1.9577298681073E-14
(PID.TID 0000.0001) %MON dynstat_wvel_min             =  -2.7612083057793E-14
(PID.TID 0000.0001) %MON dynstat_wvel_mean            =   2.5204409706946E-28
(PID.TID 0000.0001) %MON dynstat_wvel_sd              =   9.6981999638176E-15
(PID.TID 0000.0001) %MON dynstat_wvel_del2            =   1.0315547112841E-19
(PID.TID 0000.0001) %MON dynstat_theta_max            =   2.0000000000000E+01
(PID.TID 0000.0001) %MON dynstat_theta_min            =   2.0000000000000E+01
(PID.TID 0000.0001) %MON dynstat_theta_mean           =   2.0000000000000E+01
(PID.TID 0000.0001) %MON dynstat_theta_sd             =   0.0000000000000E+00
(PID.TID 0000.0001) %MON dynstat_theta_del2           =   0.0000000000000E+00
(PID.TID 0000.0001) %MON dynstat_salt_max             =   3.0000000000000E+01
(PID.TID 0000.0001) %MON dynstat_salt_min             =   3.0000000000000E+01
(PID.TID 0000.0001) %MON dynstat_salt_mean            =   3.0000000000000E+01
(PID.TID 0000.0001) %MON dynstat_salt_sd              =   0.0000000000000E+00
(PID.TID 0000.0001) %MON dynstat_salt_del2            =   0.0000000000000E+00
(PID.TID 0000.0001) %MON trAdv_CFL_u_max              =   2.2541339548762E-08
(PID.TID 0000.0001) %MON trAdv_CFL_v_max              =   1.9267508075477E-08
(PID.TID 0000.0001) %MON trAdv_CFL_w_max              =   2.1061002436840E-14
(PID.TID 0000.0001) %MON advcfl_uvel_max              =   2.2513548043773E-08
(PID.TID 0000.0001) %MON advcfl_vvel_max              =   1.9275706769043E-08
(PID.TID 0000.0001) %MON advcfl_wvel_max              =   5.9642099404833E-14
(PID.TID 0000.0001) %MON advcfl_W_hf_max              =   0.0000000000000E+00
(PID.TID 0000.0001) %MON pe_b_mean                    =   2.7881942626065E-20
(PID.TID 0000.0001) %MON ke_max                       =   2.1721994019133E-16
(PID.TID 0000.0001) %MON ke_mean                      =   2.6467722279761E-17
(PID.TID 0000.0001) %MON ke_vol                       =   7.5645000000000E+15
(PID.TID 0000.0001) %MON vort_r_min                   =  -7.0957153117623E-13
(PID.TID 0000.0001) %MON vort_r_max                   =   7.4960336382235E-13
(PID.TID 0000.0001) %MON vort_a_mean                  =   8.2300000000000E-05
(PID.TID 0000.0001) %MON vort_a_sd                    =   7.1297555115705E-06
(PID.TID 0000.0001) %MON vort_p_mean                  =   8.3303658536585E-05
(PID.TID 0000.0001) %MON vort_p_sd                    =   1.7411470224844E-05
(PID.TID 0000.0001) %MON surfExpan_theta_mean         =   5.0676991937366E-27
(PID.TID 0000.0001) %MON surfExpan_salt_mean          =   7.5535698525073E-27
(PID.TID 0000.0001) // =======================================================
(PID.TID 0000.0001) // End MONITOR dynamic field statistics
(PID.TID 0000.0001) // =======================================================
 cg2d: Sum(rhs),rhsMax =  -2.19582858453007E-03  1.85233699311661E-09
 cg2d: Sum(rhs),rhsMax =  -2.19448523178029E-03  1.85347119218841E-09
 cg2d: Sum(rhs),rhsMax =  -2.19321879920135E-03  1.85454174848728E-09
 cg2d: Sum(rhs),rhsMax =  -2.19202975057603E-03  1.85554804737426E-09
 cg2d: Sum(rhs),rhsMax =  -2.19091856553243E-03  1.85648948079541E-09
 cg2d: Sum(rhs),rhsMax =  -2.18988570645911E-03  1.85736544859888E-09
 cg2d: Sum(rhs),rhsMax =  -2.18893166876965E-03  1.85817535742649E-09
 cg2d: Sum(rhs),rhsMax =  -2.18805693670383E-03  1.85891862226976E-09
 cg2d: Sum(rhs),rhsMax =  -2.18726199413682E-03  1.85959466511815E-09
 cg2d: Sum(rhs),rhsMax =  -2.18654735154319E-03  1.86020291674774E-09
 cg2d: Sum(rhs),rhsMax =  -2.18591353088101E-03  1.86074281513872E-09
 cg2d: Sum(rhs),rhsMax =  -2.18536102159957E-03  1.86121380747802E-09
 cg2d: Sum(rhs),rhsMax =  -2.18489037846946E-03  1.86161534837004E-09
 cg2d: Sum(rhs),rhsMax =  -2.18450213053005E-03  1.86194690202279E-09
 cg2d: Sum(rhs),rhsMax =  -2.18419681890631E-03  1.86220794028664E-09
 cg2d: Sum(rhs),rhsMax =  -2.18397501689754E-03  1.86239794498710E-09
(PID.TID 0000.0001)      cg2d_init_res =   2.11660268518578E-01
(PID.TID 0000.0001)      cg2d_iters(min,last) =      -1     547
(PID.TID 0000.0001)      cg2d_last_res =   8.66032308212750E-08
(PID.TID 0000.0001) // =======================================================
(PID.TID 0000.0001) // Begin MONITOR dynamic field statistics
(PID.TID 0000.0001) // =======================================================
(PID.TID 0000.0001) %MON time_tsnumber                =                   800
(PID.TID 0000.0001) %MON time_secondsf                =   4.3200000000000E+06
(PID.TID 0000.0001) %MON dynstat_eta_max              =   9.0968114521065E-09
(PID.TID 0000.0001) %MON dynstat_eta_min              =  -1.6693182842423E-08
(PID.TID 0000.0001) %MON dynstat_eta_mean             =   3.9198341256352E-13
(PID.TID 0000.0001) %MON dynstat_eta_sd               =   5.2608534103725E-09
(PID.TID 0000.0001) %MON dynstat_eta_del2             =   1.1724743167470E-13
(PID.TID 0000.0001) %MON dynstat_uvel_max             =   1.6770118831182E-08
(PID.TID 0000.0001) %MON dynstat_uvel_min             =  -2.0364827203124E-08
(PID.TID 0000.0001) %MON dynstat_uvel_mean            =   3.8906351691779E-13
(PID.TID 0000.0001) %MON dynstat_uvel_sd              =   5.1369096587108E-09
(PID.TID 0000.0001) %MON dynstat_uvel_del2            =   3.1471303752602E-13
(PID.TID 0000.0001) %MON dynstat_vvel_max             =   1.3869778740214E-08
(PID.TID 0000.0001) %MON dynstat_vvel_min             =  -1.7948019739807E-08
(PID.TID 0000.0001) %MON dynstat_vvel_mean            =   4.2004882253522E-14
(PID.TID 0000.0001) %MON dynstat_vvel_sd              =   5.0130361785750E-09
(PID.TID 0000.0001) %MON dynstat_vvel_del2            =   3.5045085062091E-13
(PID.TID 0000.0001) %MON dynstat_wvel_max             =   2.0711751896885E-14
(PID.TID 0000.0001) %MON dynstat_wvel_min             =  -2.5553275797563E-14
(PID.TID 0000.0001) %MON dynstat_wvel_mean            =  -1.0473651905409E-27
(PID.TID 0000.0001) %MON dynstat_wvel_sd              =   9.6296090977638E-15
(PID.TID 0000.0001) %MON dynstat_wvel_del2            =   1.0258860341371E-19
(PID.TID 0000.0001) %MON dynstat_theta_max            =   2.0000000000000E+01
(PID.TID 0000.0001) %MON dynstat_theta_min            =   2.0000000000000E+01
(PID.TID 0000.0001) %MON dynstat_theta_mean           =   2.0000000000000E+01
(PID.TID 0000.0001) %MON dynstat_theta_sd             =   0.0000000000000E+00
(PID.TID 0000.0001) %MON dynstat_theta_del2           =   0.0000000000000E+00
(PID.TID 0000.0001) %MON dynstat_salt_max             =   3.0000000000000E+01
(PID.TID 0000.0001) %MON dynstat_salt_min             =   3.0000000000000E+01
(PID.TID 0000.0001) %MON dynstat_salt_mean            =   3.0000000000000E+01
(PID.TID 0000.0001) %MON dynstat_salt_sd              =   0.0000000000000E+00
(PID.TID 0000.0001) %MON dynstat_salt_del2            =   0.0000000000000E+00
(PID.TID 0000.0001) %MON trAdv_CFL_u_max              =   2.2031814698687E-08
(PID.TID 0000.0001) %MON trAdv_CFL_v_max              =   1.9377057376299E-08
(PID.TID 0000.0001) %MON trAdv_CFL_w_max              =   2.2295887608559E-14
(PID.TID 0000.0001) %MON advcfl_uvel_max              =   2.1994013379374E-08
(PID.TID 0000.0001) %MON advcfl_vvel_max              =   1.9383861318991E-08
(PID.TID 0000.0001) %MON advcfl_wvel_max              =   5.5195075722736E-14
(PID.TID 0000.0001) %MON advcfl_W_hf_max              =   0.0000000000000E+00
(PID.TID 0000.0001) %MON pe_b_mean                    =   2.7150723762657E-20
(PID.TID 0000.0001) %MON ke_max                       =   2.0735861967890E-16
(PID.TID 0000.0001) %MON ke_mean                      =   2.5654474221616E-17
(PID.TID 0000.0001) %MON ke_vol                       =   7.5645000000000E+15
(PID.TID 0000.0001) %MON vort_r_min                   =  -7.1743058934569E-13
(PID.TID 0000.0001) %MON vort_r_max                   =   6.8299471383355E-13
(PID.TID 0000.0001) %MON vort_a_mean                  =   8.2300000000000E-05
(PID.TID 0000.0001) %MON vort_a_sd                    =   7.1297555115551E-06
(PID.TID 0000.0001) %MON vort_p_mean                  =   8.3303658536585E-05
(PID.TID 0000.0001) %MON vort_p_sd                    =   1.7411470224728E-05
(PID.TID 0000.0001) %MON surfExpan_theta_mean         =  -2.0807939057486E-26
(PID.TID 0000.0001) %MON surfExpan_salt_mean          =  -3.1243605277967E-26
(PID.TID 0000.0001) // =======================================================
(PID.TID 0000.0001) // End MONITOR dynamic field statistics
(PID.TID 0000.0001) // =======================================================
 cg2d: Sum(rhs),rhsMax =  -2.18383731536068E-03  1.86251640582803E-09
 cg2d: Sum(rhs),rhsMax =  -2.18378431781989E-03  1.86256282283634E-09
 cg2d: Sum(rhs),rhsMax =  -2.18381670250689E-03  1.86253670416078E-09
 cg2d: Sum(rhs),rhsMax =  -2.18393524863327E-03  1.86243756860008E-09
 cg2d: Sum(rhs),rhsMax =  -2.18414098018869E-03  1.86226494332343E-09
 cg2d: Sum(rhs),rhsMax =  -2.18443593821755E-03  1.86201836645795E-09
 cg2d: Sum(rhs),rhsMax =  -2.18778104980178E-03  1.86192657622776E-09
 cg2d: Sum(rhs),rhsMax =  -2.18792942548092E-03  1.86178959630827E-09
 cg2d: Sum(rhs),rhsMax =  -2.18817309273399E-03  1.86157810305402E-09
 cg2d: Sum(rhs),rhsMax =  -2.18850678702196E-03  1.86129166396792E-09
 cg2d: Sum(rhs),rhsMax =  -2.18893004773449E-03  1.86092985805291E-09
 cg2d: Sum(rhs),rhsMax =  -2.18944313067249E-03  1.86049227360664E-09
 cg2d: Sum(rhs),rhsMax =  -2.19004643688162E-03  1.85997850985566E-09
 cg2d: Sum(rhs),rhsMax =  -2.19074051182731E-03  1.85938817611496E-09
 cg2d: Sum(rhs),rhsMax =  -2.19152590609129E-03  1.85872089268623E-09
 cg2d: Sum(rhs),rhsMax =  -2.19240320893059E-03  1.85797629028293E-09
(PID.TID 0000.0001)      cg2d_init_res =   2.09963020104382E-01
(PID.TID 0000.0001)      cg2d_iters(min,last) =      -1     547
(PID.TID 0000.0001)      cg2d_last_res =   8.91965123090733E-08
(PID.TID 0000.0001) // =======================================================
(PID.TID 0000.0001) // Begin MONITOR dynamic field statistics
(PID.TID 0000.0001) // =======================================================
(PID.TID 0000.0001) %MON time_tsnumber                =                   816
(PID.TID 0000.0001) %MON time_secondsf                =   4.4064000000000E+06
(PID.TID 0000.0001) %MON dynstat_eta_max              =   9.4608482773882E-09
(PID.TID 0000.0001) %MON dynstat_eta_min              =  -1.7318001296311E-08
(PID.TID 0000.0001) %MON dynstat_eta_mean             =   3.9256151869558E-13
(PID.TID 0000.0001) %MON dynstat_eta_sd               =   5.2075571574097E-09
(PID.TID 0000.0001) %MON dynstat_eta_del2             =   1.1399289690463E-13
(PID.TID 0000.0001) %MON dynstat_uvel_max             =   1.6414975773312E-08
(PID.TID 0000.0001) %MON dynstat_uvel_min             =  -1.9752314558531E-08
(PID.TID 0000.0001) %MON dynstat_uvel_mean            =   3.9128084038807E-13
(PID.TID 0000.0001) %MON dynstat_uvel_sd              =   5.0542242060583E-09
(PID.TID 0000.0001) %MON dynstat_uvel_del2            =   3.0432805394585E-13
(PID.TID 0000.0001) %MON dynstat_vvel_max             =   1.3947957736305E-08
(PID.TID 0000.0001) %MON dynstat_vvel_min             =  -1.8017587665074E-08
(PID.TID 0000.0001) %MON dynstat_vvel_mean            =   4.4374411699693E-14
(PID.TID 0000.0001) %MON dynstat_vvel_sd              =   4.9430139188667E-09
(PID.TID 0000.0001) %MON dynstat_vvel_del2            =   3.3550748599071E-13
(PID.TID 0000.0001) %MON dynstat_wvel_max             =   2.1776232144166E-14
(PID.TID 0000.0001) %MON dynstat_wvel_min             =  -2.3012742018658E-14
(PID.TID 0000.0001) %MON dynstat_wvel_mean            =   2.0643373832627E-28
(PID.TID 0000.0001) %MON dynstat_wvel_sd              =   9.5433513383792E-15
(PID.TID 0000.0001) %MON dynstat_wvel_del2            =   1.0183474985174E-19
(PID.TID 0000.0001) %MON dynstat_theta_max            =   2.0000000000000E+01
(PID.TID 0000.0001) %MON dynstat_theta_min            =   2.0000000000000E+01
(PID.TID 0000.0001) %MON dynstat_theta_mean           =   2.0000000000000E+01
(PID.TID 0000.0001) %MON dynstat_theta_sd             =   0.0000000000000E+00
(PID.TID 0000.0001) %MON dynstat_theta_del2           =   0.0000000000000E+00
(PID.TID 0000.0001) %MON dynstat_salt_max             =   3.0000000000000E+01
(PID.TID 0000.0001) %MON dynstat_salt_min             =   3.0000000000000E+01
(PID.TID 0000.0001) %MON dynstat_salt_mean            =   3.0000000000000E+01
(PID.TID 0000.0001) %MON dynstat_salt_sd              =   0.0000000000000E+00
(PID.TID 0000.0001) %MON dynstat_salt_del2            =   0.0000000000000E+00
(PID.TID 0000.0001) %MON trAdv_CFL_u_max              =   2.1377138722870E-08
(PID.TID 0000.0001) %MON trAdv_CFL_v_max              =   1.9454952571699E-08
(PID.TID 0000.0001) %MON trAdv_CFL_w_max              =   2.3446515165393E-14
(PID.TID 0000.0001) %MON advcfl_uvel_max              =   2.1332499723214E-08
(PID.TID 0000.0001) %MON advcfl_vvel_max              =   1.9458994678280E-08
(PID.TID 0000.0001) %MON advcfl_wvel_max              =   4.9707522760301E-14
(PID.TID 0000.0001) %MON advcfl_W_hf_max              =   0.0000000000000E+00
(PID.TID 0000.0001) %MON pe_b_mean                    =   2.6603397319459E-20
(PID.TID 0000.0001) %MON ke_max                       =   1.9500549421935E-16
(PID.TID 0000.0001) %MON ke_mean                      =   2.4887702083659E-17
(PID.TID 0000.0001) %MON ke_vol                       =   7.5645000000000E+15
(PID.TID 0000.0001) %MON vort_r_min                   =  -7.1968419099452E-13
(PID.TID 0000.0001) %MON vort_r_max                   =   6.1604331645684E-13
(PID.TID 0000.0001) %MON vort_a_mean                  =   8.2300000000000E-05
(PID.TID 0000.0001) %MON vort_a_sd                    =   7.1297555115651E-06
(PID.TID 0000.0001) %MON vort_p_mean                  =   8.3303658536585E-05
(PID.TID 0000.0001) %MON vort_p_sd                    =   1.7411470224660E-05
(PID.TID 0000.0001) %MON surfExpan_theta_mean         =   4.2562854123917E-27
(PID.TID 0000.0001) %MON surfExpan_salt_mean          =   6.3659209329808E-27
(PID.TID 0000.0001) // =======================================================
(PID.TID 0000.0001) // End MONITOR dynamic field statistics
(PID.TID 0000.0001) // =======================================================
 cg2d: Sum(rhs),rhsMax =  -2.19337305386752E-03  1.85715401077250E-09
 cg2d: Sum(rhs),rhsMax =  -2.19443606453235E-03  1.85625370671985E-09
 cg2d: Sum(rhs),rhsMax =  -2.19559290455266E-03  1.85527504200266E-09
 cg2d: Sum(rhs),rhsMax =  -2.19684423924948E-03  1.85421769147596E-09
 cg2d: Sum(rhs),rhsMax =  -2.19819075737446E-03  1.85308134147357E-09
 cg2d: Sum(rhs),rhsMax =  -2.19963315653173E-03  1.85186568958047E-09
 cg2d: Sum(rhs),rhsMax =  -2.20117214878919E-03  1.85057044499237E-09
 cg2d: Sum(rhs),rhsMax =  -2.20280846138168E-03  1.84919532842313E-09
 cg2d: Sum(rhs),rhsMax =  -2.20454285563753E-03  1.84774007232615E-09
 cg2d: Sum(rhs),rhsMax =  -2.20637608255697E-03  1.84620442093541E-09
 cg2d: Sum(rhs),rhsMax =  -2.20815826856862E-03  1.84471397669849E-09
 cg2d: Sum(rhs),rhsMax =  -2.20985363215663E-03  1.84329836593654E-09
 cg2d: Sum(rhs),rhsMax =  -2.21164825692266E-03  1.84180228163980E-09
 cg2d: Sum(rhs),rhsMax =  -2.21354287589465E-03  1.84022550227490E-09
 cg2d: Sum(rhs),rhsMax =  -2.21553824364419E-03  1.83856781718334E-09
 cg2d: Sum(rhs),rhsMax =  -2.21763514128214E-03  1.83682902888328E-09
(PID.TID 0000.0001)      cg2d_init_res =   2.09590640166614E-01
(PID.TID 0000.0001)      cg2d_iters(min,last) =      -1     547
(PID.TID 0000.0001)      cg2d_last_res =   9.14865254166072E-08
(PID.TID 0000.0001) // =======================================================
(PID.TID 0000.0001) // Begin MONITOR dynamic field statistics
(PID.TID 0000.0001) // =======================================================
(PID.TID 0000.0001) %MON time_tsnumber                =                   832
(PID.TID 0000.0001) %MON time_secondsf                =   4.4928000000000E+06
(PID.TID 0000.0001) %MON dynstat_eta_max              =   9.8117665789418E-09
(PID.TID 0000.0001) %MON dynstat_eta_min              =  -1.7955447629646E-08
(PID.TID 0000.0001) %MON dynstat_eta_mean             =   3.9256001100116E-13
(PID.TID 0000.0001) %MON dynstat_eta_sd               =   5.1702814750359E-09
(PID.TID 0000.0001) %MON dynstat_eta_del2             =   1.1085296518855E-13
(PID.TID 0000.0001) %MON dynstat_uvel_max             =   1.6066130581436E-08
(PID.TID 0000.0001) %MON dynstat_uvel_min             =  -1.9009549303424E-08
(PID.TID 0000.0001) %MON dynstat_uvel_mean            =   3.7243279346937E-13
(PID.TID 0000.0001) %MON dynstat_uvel_sd              =   4.9675261577962E-09
(PID.TID 0000.0001) %MON dynstat_uvel_del2            =   2.9474035132425E-13
(PID.TID 0000.0001) %MON dynstat_vvel_max             =   1.4092044231740E-08
(PID.TID 0000.0001) %MON dynstat_vvel_min             =  -1.8045019397802E-08
(PID.TID 0000.0001) %MON dynstat_vvel_mean            =   4.6001886239396E-14
(PID.TID 0000.0001) %MON dynstat_vvel_sd              =   4.8834803330239E-09
(PID.TID 0000.0001) %MON dynstat_vvel_del2            =   3.2152559972573E-13
(PID.TID 0000.0001) %MON dynstat_wvel_max             =   2.2880175826190E-14
(PID.TID 0000.0001) %MON dynstat_wvel_min             =  -2.0429273874800E-14
(PID.TID 0000.0001) %MON dynstat_wvel_mean            =   1.3244913293917E-27
(PID.TID 0000.0001) %MON dynstat_wvel_sd              =   9.4418232832214E-15
(PID.TID 0000.0001) %MON dynstat_wvel_del2            =   1.0084818211006E-19
(PID.TID 0000.0001) %MON dynstat_theta_max            =   2.0000000000000E+01
(PID.TID 0000.0001) %MON dynstat_theta_min            =   2.0000000000000E+01
(PID.TID 0000.0001) %MON dynstat_theta_mean           =   2.0000000000000E+01
(PID.TID 0000.0001) %MON dynstat_theta_sd             =   0.0000000000000E+00
(PID.TID 0000.0001) %MON dynstat_theta_del2           =   0.0000000000000E+00
(PID.TID 0000.0001) %MON dynstat_salt_max             =   3.0000000000000E+01
(PID.TID 0000.0001) %MON dynstat_salt_min             =   3.0000000000000E+01
(PID.TID 0000.0001) %MON dynstat_salt_mean            =   3.0000000000000E+01
(PID.TID 0000.0001) %MON dynstat_salt_sd              =   0.0000000000000E+00
(PID.TID 0000.0001) %MON dynstat_salt_del2            =   0.0000000000000E+00
(PID.TID 0000.0001) %MON trAdv_CFL_u_max              =   2.0584538122407E-08
(PID.TID 0000.0001) %MON trAdv_CFL_v_max              =   1.9488023750126E-08
(PID.TID 0000.0001) %MON trAdv_CFL_w_max              =   2.4637590588883E-14
(PID.TID 0000.0001) %MON advcfl_uvel_max              =   2.0530313247698E-08
(PID.TID 0000.0001) %MON advcfl_vvel_max              =   1.9488620949626E-08
(PID.TID 0000.0001) %MON advcfl_wvel_max              =   4.9421179784570E-14
(PID.TID 0000.0001) %MON advcfl_W_hf_max              =   0.0000000000000E+00
(PID.TID 0000.0001) %MON pe_b_mean                    =   2.6223906282184E-20
(PID.TID 0000.0001) %MON ke_max                       =   1.8058058509423E-16
(PID.TID 0000.0001) %MON ke_mean                      =   2.4163720784348E-17
(PID.TID 0000.0001) %MON ke_vol                       =   7.5645000000000E+15
(PID.TID 0000.0001) %MON vort_r_min                   =  -7.1589554544918E-13
(PID.TID 0000.0001) %MON vort_r_max                   =   5.5097595916418E-13
(PID.TID 0000.0001) %MON vort_a_mean                  =   8.2300000000001E-05
(PID.TID 0000.0001) %MON vort_a_sd                    =   7.1297555115584E-06
(PID.TID 0000.0001) %MON vort_p_mean                  =   8.3303658536586E-05
(PID.TID 0000.0001) %MON vort_p_sd                    =   1.7411470224621E-05
(PID.TID 0000.0001) %MON surfExpan_theta_mean         =   2.6599049404212E-26
(PID.TID 0000.0001) %MON surfExpan_salt_mean          =   3.9907592552159E-26
(PID.TID 0000.0001) // =======================================================
(PID.TID 0000.0001) // End MONITOR dynamic field statistics
(PID.TID 0000.0001) // =======================================================
 cg2d: Sum(rhs),rhsMax =  -2.21983435905738E-03  1.83500895103139E-09
 cg2d: Sum(rhs),rhsMax =  -2.22213669420854E-03  1.83310740989455E-09
 cg2d: Sum(rhs),rhsMax =  -2.22454298587744E-03  1.83112424421794E-09
 cg2d: Sum(rhs),rhsMax =  -2.22705406081556E-03  1.82905930513414E-09
 cg2d: Sum(rhs),rhsMax =  -2.22967078898222E-03  1.82691245542100E-09
 cg2d: Sum(rhs),rhsMax =  -2.23239403875776E-03  1.82468357151042E-09
 cg2d: Sum(rhs),rhsMax =  -2.23522470766546E-03  1.82237254115657E-09
 cg2d: Sum(rhs),rhsMax =  -2.23816372414938E-03  1.81997926594707E-09
 cg2d: Sum(rhs),rhsMax =  -2.24121199941791E-03  1.81750365889744E-09
 cg2d: Sum(rhs),rhsMax =  -2.24437049392149E-03  1.81494564698356E-09
 cg2d: Sum(rhs),rhsMax =  -2.24764018802519E-03  1.81230516870639E-09
 cg2d: Sum(rhs),rhsMax =  -2.25102205879546E-03  1.80958217663451E-09
 cg2d: Sum(rhs),rhsMax =  -2.25451712760475E-03  1.80677663495621E-09
 cg2d: Sum(rhs),rhsMax =  -2.25775709035291E-03  1.80418362515190E-09
 cg2d: Sum(rhs),rhsMax =  -2.26110398448615E-03  1.80151284481946E-09
 cg2d: Sum(rhs),rhsMax =  -2.26456426139601E-03  1.79875989416639E-09
(PID.TID 0000.0001)      cg2d_init_res =   2.10679096685337E-01
(PID.TID 0000.0001)      cg2d_iters(min,last) =      -1     547
(PID.TID 0000.0001)      cg2d_last_res =   9.59149121226657E-08
(PID.TID 0000.0001) // =======================================================
(PID.TID 0000.0001) // Begin MONITOR dynamic field statistics
(PID.TID 0000.0001) // =======================================================
(PID.TID 0000.0001) %MON time_tsnumber                =                   848
(PID.TID 0000.0001) %MON time_secondsf                =   4.5792000000000E+06
(PID.TID 0000.0001) %MON dynstat_eta_max              =   1.0123087597416E-08
(PID.TID 0000.0001) %MON dynstat_eta_min              =  -1.8573596664218E-08
(PID.TID 0000.0001) %MON dynstat_eta_mean             =   3.9255914124620E-13
(PID.TID 0000.0001) %MON dynstat_eta_sd               =   5.1462835980801E-09
(PID.TID 0000.0001) %MON dynstat_eta_del2             =   1.0783832550195E-13
(PID.TID 0000.0001) %MON dynstat_uvel_max             =   1.5735138456077E-08
(PID.TID 0000.0001) %MON dynstat_uvel_min             =  -1.8165033738647E-08
(PID.TID 0000.0001) %MON dynstat_uvel_mean            =   3.3336335011474E-13
(PID.TID 0000.0001) %MON dynstat_uvel_sd              =   4.8776480873474E-09
(PID.TID 0000.0001) %MON dynstat_uvel_del2            =   2.8612104927333E-13
(PID.TID 0000.0001) %MON dynstat_vvel_max             =   1.4311406174405E-08
(PID.TID 0000.0001) %MON dynstat_vvel_min             =  -1.8004223468942E-08
(PID.TID 0000.0001) %MON dynstat_vvel_mean            =   4.7182341991024E-14
(PID.TID 0000.0001) %MON dynstat_vvel_sd              =   4.8330202451261E-09
(PID.TID 0000.0001) %MON dynstat_vvel_del2            =   3.0855968696418E-13
(PID.TID 0000.0001) %MON dynstat_wvel_max             =   2.3798361459271E-14
(PID.TID 0000.0001) %MON dynstat_wvel_min             =  -1.7824639633179E-14
(PID.TID 0000.0001) %MON dynstat_wvel_mean            =  -1.1988636075305E-27
(PID.TID 0000.0001) %MON dynstat_wvel_sd              =   9.3309813120987E-15
(PID.TID 0000.0001) %MON dynstat_wvel_del2            =   9.9631081254420E-20
(PID.TID 0000.0001) %MON dynstat_theta_max            =   2.0000000000000E+01
(PID.TID 0000.0001) %MON dynstat_theta_min            =   2.0000000000000E+01
(PID.TID 0000.0001) %MON dynstat_theta_mean           =   2.0000000000000E+01
(PID.TID 0000.0001) %MON dynstat_theta_sd             =   0.0000000000000E+00
(PID.TID 0000.0001) %MON dynstat_theta_del2           =   0.0000000000000E+00
(PID.TID 0000.0001) %MON dynstat_salt_max             =   3.0000000000000E+01
(PID.TID 0000.0001) %MON dynstat_salt_min             =   3.0000000000000E+01
(PID.TID 0000.0001) %MON dynstat_salt_mean            =   3.0000000000000E+01
(PID.TID 0000.0001) %MON dynstat_salt_sd              =   0.0000000000000E+00
(PID.TID 0000.0001) %MON dynstat_salt_del2            =   0.0000000000000E+00
(PID.TID 0000.0001) %MON trAdv_CFL_u_max              =   1.9677895710709E-08
(PID.TID 0000.0001) %MON trAdv_CFL_v_max              =   1.9448236306887E-08
(PID.TID 0000.0001) %MON trAdv_CFL_w_max              =   2.5649952964013E-14
(PID.TID 0000.0001) %MON advcfl_uvel_max              =   1.9618236437738E-08
(PID.TID 0000.0001) %MON advcfl_vvel_max              =   1.9444561346457E-08
(PID.TID 0000.0001) %MON advcfl_wvel_max              =   5.1404460752025E-14
(PID.TID 0000.0001) %MON advcfl_W_hf_max              =   0.0000000000000E+00
(PID.TID 0000.0001) %MON pe_b_mean                    =   2.5981034560477E-20
(PID.TID 0000.0001) %MON ke_max                       =   1.6990876675000E-16
(PID.TID 0000.0001) %MON ke_mean                      =   2.3478935444013E-17
(PID.TID 0000.0001) %MON ke_vol                       =   7.5645000000000E+15
(PID.TID 0000.0001) %MON vort_r_min                   =  -7.0606845245533E-13
(PID.TID 0000.0001) %MON vort_r_max                   =   5.2538696010182E-13
(PID.TID 0000.0001) %MON vort_a_mean                  =   8.2300000000000E-05
(PID.TID 0000.0001) %MON vort_a_sd                    =   7.1297555115656E-06
(PID.TID 0000.0001) %MON vort_p_mean                  =   8.3303658536585E-05
(PID.TID 0000.0001) %MON vort_p_sd                    =   1.7411470224624E-05
(PID.TID 0000.0001) %MON surfExpan_theta_mean         =  -2.3869109636515E-26
(PID.TID 0000.0001) %MON surfExpan_salt_mean          =  -3.5811744552264E-26
(PID.TID 0000.0001) // =======================================================
(PID.TID 0000.0001) // End MONITOR dynamic field statistics
(PID.TID 0000.0001) // =======================================================
 cg2d: Sum(rhs),rhsMax =  -2.26813893237062E-03  1.79592477089814E-09
 cg2d: Sum(rhs),rhsMax =  -2.27182900642400E-03  1.79300748616184E-09
 cg2d: Sum(rhs),rhsMax =  -2.27563553720587E-03  1.79000806341293E-09
 cg2d: Sum(rhs),rhsMax =  -2.27955956619616E-03  1.78692653952239E-09
 cg2d: Sum(rhs),rhsMax =  -2.28360220525383E-03  1.78376296381804E-09
 cg2d: Sum(rhs),rhsMax =  -2.28776455200003E-03  1.78051739900168E-09
 cg2d: Sum(rhs),rhsMax =  -2.29204775230524E-03  1.77718992037470E-09
 cg2d: Sum(rhs),rhsMax =  -2.29645294424380E-03  1.77378061655529E-09
 cg2d: Sum(rhs),rhsMax =  -2.30098132565951E-03  1.77028958889573E-09
 cg2d: Sum(rhs),rhsMax =  -2.30563411242594E-03  1.76671695199564E-09
 cg2d: Sum(rhs),rhsMax =  -2.31041252503741E-03  1.76306283331441E-09
 cg2d: Sum(rhs),rhsMax =  -2.31531783051737E-03  1.75932737347526E-09
 cg2d: Sum(rhs),rhsMax =  -2.32035131847779E-03  1.75551072607820E-09
 cg2d: Sum(rhs),rhsMax =  -2.32548886657251E-03  1.75163222410268E-09
 cg2d: Sum(rhs),rhsMax =  -2.33036525108315E-03  1.74796668374151E-09
 cg2d: Sum(rhs),rhsMax =  -2.33536986304181E-03  1.74422069158896E-09
(PID.TID 0000.0001)      cg2d_init_res =   2.13432266155209E-01
(PID.TID 0000.0001)      cg2d_iters(min,last) =      -1     547
(PID.TID 0000.0001)      cg2d_last_res =   9.96809973124502E-08
(PID.TID 0000.0001) // =======================================================
(PID.TID 0000.0001) // Begin MONITOR dynamic field statistics
(PID.TID 0000.0001) // =======================================================
(PID.TID 0000.0001) %MON time_tsnumber                =                   864
(PID.TID 0000.0001) %MON time_secondsf                =   4.6656000000000E+06
(PID.TID 0000.0001) %MON dynstat_eta_max              =   1.0390684066596E-08
(PID.TID 0000.0001) %MON dynstat_eta_min              =  -1.9139189730881E-08
(PID.TID 0000.0001) %MON dynstat_eta_mean             =   3.9255848125883E-13
(PID.TID 0000.0001) %MON dynstat_eta_sd               =   5.1315412403557E-09
(PID.TID 0000.0001) %MON dynstat_eta_del2             =   1.0495733489959E-13
(PID.TID 0000.0001) %MON dynstat_uvel_max             =   1.5431248025274E-08
(PID.TID 0000.0001) %MON dynstat_uvel_min             =  -1.7520604689919E-08
(PID.TID 0000.0001) %MON dynstat_uvel_mean            =   2.7604469316028E-13
(PID.TID 0000.0001) %MON dynstat_uvel_sd              =   4.7865219053338E-09
(PID.TID 0000.0001) %MON dynstat_uvel_del2            =   2.7858003376886E-13
(PID.TID 0000.0001) %MON dynstat_vvel_max             =   1.4588960119645E-08
(PID.TID 0000.0001) %MON dynstat_vvel_min             =  -1.7880911382610E-08
(PID.TID 0000.0001) %MON dynstat_vvel_mean            =   4.8203722693750E-14
(PID.TID 0000.0001) %MON dynstat_vvel_sd              =   4.7890895995255E-09
(PID.TID 0000.0001) %MON dynstat_vvel_del2            =   2.9670072689397E-13
(PID.TID 0000.0001) %MON dynstat_wvel_max             =   2.4384894834473E-14
(PID.TID 0000.0001) %MON dynstat_wvel_min             =  -1.7309139583865E-14
(PID.TID 0000.0001) %MON dynstat_wvel_mean            =   3.0389741862348E-28
(PID.TID 0000.0001) %MON dynstat_wvel_sd              =   9.2195679368286E-15
(PID.TID 0000.0001) %MON dynstat_wvel_del2            =   9.8189185957690E-20
(PID.TID 0000.0001) %MON dynstat_theta_max            =   2.0000000000000E+01
(PID.TID 0000.0001) %MON dynstat_theta_min            =   2.0000000000000E+01
(PID.TID 0000.0001) %MON dynstat_theta_mean           =   2.0000000000000E+01
(PID.TID 0000.0001) %MON dynstat_theta_sd             =   0.0000000000000E+00
(PID.TID 0000.0001) %MON dynstat_theta_del2           =   0.0000000000000E+00
(PID.TID 0000.0001) %MON dynstat_salt_max             =   3.0000000000000E+01
(PID.TID 0000.0001) %MON dynstat_salt_min             =   3.0000000000000E+01
(PID.TID 0000.0001) %MON dynstat_salt_mean            =   3.0000000000000E+01
(PID.TID 0000.0001) %MON dynstat_salt_sd              =   0.0000000000000E+00
(PID.TID 0000.0001) %MON dynstat_salt_del2            =   0.0000000000000E+00
(PID.TID 0000.0001) %MON trAdv_CFL_u_max              =   1.8932497247978E-08
(PID.TID 0000.0001) %MON trAdv_CFL_v_max              =   1.9319962118738E-08
(PID.TID 0000.0001) %MON trAdv_CFL_w_max              =   2.6303290649965E-14
(PID.TID 0000.0001) %MON advcfl_uvel_max              =   1.8922253065113E-08
(PID.TID 0000.0001) %MON advcfl_vvel_max              =   1.9311384293219E-08
(PID.TID 0000.0001) %MON advcfl_wvel_max              =   5.2671372842461E-14
(PID.TID 0000.0001) %MON advcfl_W_hf_max              =   0.0000000000000E+00
(PID.TID 0000.0001) %MON pe_b_mean                    =   2.5832394058118E-20
(PID.TID 0000.0001) %MON ke_max                       =   1.6846326092137E-16
(PID.TID 0000.0001) %MON ke_mean                      =   2.2829902335684E-17
(PID.TID 0000.0001) %MON ke_vol                       =   7.5645000000000E+15
(PID.TID 0000.0001) %MON vort_r_min                   =  -6.8991828537681E-13
(PID.TID 0000.0001) %MON vort_r_max                   =   5.2116109639668E-13
(PID.TID 0000.0001) %MON vort_a_mean                  =   8.2300000000000E-05
(PID.TID 0000.0001) %MON vort_a_sd                    =   7.1297555115690E-06
(PID.TID 0000.0001) %MON vort_p_mean                  =   8.3303658536585E-05
(PID.TID 0000.0001) %MON vort_p_sd                    =   1.7411470224654E-05
(PID.TID 0000.0001) %MON surfExpan_theta_mean         =   6.1899996529527E-27
(PID.TID 0000.0001) %MON surfExpan_salt_mean          =   9.1949538696910E-27
(PID.TID 0000.0001) // =======================================================
(PID.TID 0000.0001) // End MONITOR dynamic field statistics
(PID.TID 0000.0001) // =======================================================
 cg2d: Sum(rhs),rhsMax =  -2.34050394809465E-03  1.74039443210658E-09
 cg2d: Sum(rhs),rhsMax =  -2.34576882720957E-03  1.73648810161771E-09
 cg2d: Sum(rhs),rhsMax =  -2.35116584558815E-03  1.73250191060524E-09
 cg2d: Sum(rhs),rhsMax =  -2.35669634430444E-03  1.72843608028508E-09
 cg2d: Sum(rhs),rhsMax =  -2.36236170781766E-03  1.72429084689447E-09
 cg2d: Sum(rhs),rhsMax =  -2.36816334777294E-03  1.72006645827550E-09
 cg2d: Sum(rhs),rhsMax =  -2.37410272422299E-03  1.71576317533704E-09
 cg2d: Sum(rhs),rhsMax =  -2.38018130412490E-03  1.71138127172727E-09
 cg2d: Sum(rhs),rhsMax =  -2.38640061426114E-03  1.70692103382335E-09
 cg2d: Sum(rhs),rhsMax =  -2.39276219347006E-03  1.70238276071273E-09
 cg2d: Sum(rhs),rhsMax =  -2.39926760727895E-03  1.69776676415936E-09
 cg2d: Sum(rhs),rhsMax =  -2.40591847350457E-03  1.69307336857400E-09
 cg2d: Sum(rhs),rhsMax =  -2.41271644710139E-03  1.68830291097783E-09
 cg2d: Sum(rhs),rhsMax =  -2.41948579253596E-03  1.68357917744942E-09
 cg2d: Sum(rhs),rhsMax =  -2.42611669421299E-03  1.67897760950856E-09
 cg2d: Sum(rhs),rhsMax =  -2.43289450686122E-03  1.67430001650498E-09
(PID.TID 0000.0001)      cg2d_init_res =   2.18119300663828E-01
(PID.TID 0000.0001)      cg2d_iters(min,last) =      -1     548
(PID.TID 0000.0001)      cg2d_last_res =   9.77704483130204E-08
(PID.TID 0000.0001) // =======================================================
(PID.TID 0000.0001) // Begin MONITOR dynamic field statistics
(PID.TID 0000.0001) // =======================================================
(PID.TID 0000.0001) %MON time_tsnumber                =                   880
(PID.TID 0000.0001) %MON time_secondsf                =   4.7520000000000E+06
(PID.TID 0000.0001) %MON dynstat_eta_max              =   1.0601868461105E-08
(PID.TID 0000.0001) %MON dynstat_eta_min              =  -1.9619341280546E-08
(PID.TID 0000.0001) %MON dynstat_eta_mean             =   3.9255799719528E-13
(PID.TID 0000.0001) %MON dynstat_eta_sd               =   5.1213724668995E-09
(PID.TID 0000.0001) %MON dynstat_eta_del2             =   1.0221548552336E-13
(PID.TID 0000.0001) %MON dynstat_uvel_max             =   1.5162643035642E-08
(PID.TID 0000.0001) %MON dynstat_uvel_min             =  -1.7300251870651E-08
(PID.TID 0000.0001) %MON dynstat_uvel_mean            =   2.0346465330790E-13
(PID.TID 0000.0001) %MON dynstat_uvel_sd              =   4.6968105474701E-09
(PID.TID 0000.0001) %MON dynstat_uvel_del2            =   2.7212008811496E-13
(PID.TID 0000.0001) %MON dynstat_vvel_max             =   1.4906618890282E-08
(PID.TID 0000.0001) %MON dynstat_vvel_min             =  -1.7664967000754E-08
(PID.TID 0000.0001) %MON dynstat_vvel_mean            =   4.9328363254763E-14
(PID.TID 0000.0001) %MON dynstat_vvel_sd              =   4.7484794568755E-09
(PID.TID 0000.0001) %MON dynstat_vvel_del2            =   2.8609121237130E-13
(PID.TID 0000.0001) %MON dynstat_wvel_max             =   2.4826018140134E-14
(PID.TID 0000.0001) %MON dynstat_wvel_min             =  -1.6833472158417E-14
(PID.TID 0000.0001) %MON dynstat_wvel_mean            =  -1.6459458574846E-27
(PID.TID 0000.0001) %MON dynstat_wvel_sd              =   9.1176430072211E-15
(PID.TID 0000.0001) %MON dynstat_wvel_del2            =   9.6571154611993E-20
(PID.TID 0000.0001) %MON dynstat_theta_max            =   2.0000000000000E+01
(PID.TID 0000.0001) %MON dynstat_theta_min            =   2.0000000000000E+01
(PID.TID 0000.0001) %MON dynstat_theta_mean           =   2.0000000000000E+01
(PID.TID 0000.0001) %MON dynstat_theta_sd             =   0.0000000000000E+00
(PID.TID 0000.0001) %MON dynstat_theta_del2           =   0.0000000000000E+00
(PID.TID 0000.0001) %MON dynstat_salt_max             =   3.0000000000000E+01
(PID.TID 0000.0001) %MON dynstat_salt_min             =   3.0000000000000E+01
(PID.TID 0000.0001) %MON dynstat_salt_mean            =   3.0000000000000E+01
(PID.TID 0000.0001) %MON dynstat_salt_sd              =   0.0000000000000E+00
(PID.TID 0000.0001) %MON dynstat_salt_del2            =   0.0000000000000E+00
(PID.TID 0000.0001) %MON trAdv_CFL_u_max              =   1.8703106491180E-08
(PID.TID 0000.0001) %MON trAdv_CFL_v_max              =   1.9092038244152E-08
(PID.TID 0000.0001) %MON trAdv_CFL_w_max              =   2.6786688594038E-14
(PID.TID 0000.0001) %MON advcfl_uvel_max              =   1.8684272020303E-08
(PID.TID 0000.0001) %MON advcfl_vvel_max              =   1.9078164360814E-08
(PID.TID 0000.0001) %MON advcfl_wvel_max              =   5.3624199182689E-14
(PID.TID 0000.0001) %MON advcfl_W_hf_max              =   0.0000000000000E+00
(PID.TID 0000.0001) %MON pe_b_mean                    =   2.5730115432940E-20
(PID.TID 0000.0001) %MON ke_max                       =   1.6927551584682E-16
(PID.TID 0000.0001) %MON ke_mean                      =   2.2213376415003E-17
(PID.TID 0000.0001) %MON ke_vol                       =   7.5645000000000E+15
(PID.TID 0000.0001) %MON vort_r_min                   =  -6.6762856855125E-13
(PID.TID 0000.0001) %MON vort_r_max                   =   5.1700067852612E-13
(PID.TID 0000.0001) %MON vort_a_mean                  =   8.2300000000000E-05
(PID.TID 0000.0001) %MON vort_a_sd                    =   7.1297555115575E-06
(PID.TID 0000.0001) %MON vort_p_mean                  =   8.3303658536585E-05
(PID.TID 0000.0001) %MON vort_p_sd                    =   1.7411470224707E-05
(PID.TID 0000.0001) %MON surfExpan_theta_mean         =  -3.2808134032448E-26
(PID.TID 0000.0001) %MON surfExpan_salt_mean          =  -4.9179379011855E-26
(PID.TID 0000.0001) // =======================================================
(PID.TID 0000.0001) // End MONITOR dynamic field statistics
(PID.TID 0000.0001) // =======================================================
 cg2d: Sum(rhs),rhsMax =  -2.43982086132020E-03  1.66954676107202E-09
 cg2d: Sum(rhs),rhsMax =  -2.44689743093111E-03  1.66471821810217E-09
 cg2d: Sum(rhs),rhsMax =  -2.45412591271135E-03  1.65981477469933E-09
 cg2d: Sum(rhs),rhsMax =  -2.46150805036096E-03  1.65483683013009E-09
 cg2d: Sum(rhs),rhsMax =  -2.46904560768631E-03  1.64978479577102E-09
 cg2d: Sum(rhs),rhsMax =  -2.47674039240832E-03  1.64465909505469E-09
 cg2d: Sum(rhs),rhsMax =  -2.48459428095285E-03  1.63946016341221E-09
 cg2d: Sum(rhs),rhsMax =  -2.49260914531698E-03  1.63418844821360E-09
 cg2d: Sum(rhs),rhsMax =  -2.50078692299490E-03  1.62884440870590E-09
 cg2d: Sum(rhs),rhsMax =  -2.50912959673419E-03  1.62342851594818E-09
 cg2d: Sum(rhs),rhsMax =  -2.51763917022918E-03  1.61794125274430E-09
 cg2d: Sum(rhs),rhsMax =  -2.52631770179871E-03  1.61238311357361E-09
 cg2d: Sum(rhs),rhsMax =  -2.53477640189968E-03  1.60700238785880E-09
 cg2d: Sum(rhs),rhsMax =  -2.54327751621422E-03  1.60163074865781E-09
 cg2d: Sum(rhs),rhsMax =  -2.55194716802573E-03  1.59618948842309E-09
 cg2d: Sum(rhs),rhsMax =  -2.56078738641939E-03  1.59067912248418E-09
(PID.TID 0000.0001)      cg2d_init_res =   2.25070910970121E-01
(PID.TID 0000.0001)      cg2d_iters(min,last) =      -1     549
(PID.TID 0000.0001)      cg2d_last_res =   9.41717394204762E-08
(PID.TID 0000.0001) // =======================================================
(PID.TID 0000.0001) // Begin MONITOR dynamic field statistics
(PID.TID 0000.0001) // =======================================================
(PID.TID 0000.0001) %MON time_tsnumber                =                   896
(PID.TID 0000.0001) %MON time_secondsf                =   4.8384000000000E+06
(PID.TID 0000.0001) %MON dynstat_eta_max              =   1.0941383835652E-08
(PID.TID 0000.0001) %MON dynstat_eta_min              =  -1.9983216417340E-08
(PID.TID 0000.0001) %MON dynstat_eta_mean             =   3.9255759300153E-13
(PID.TID 0000.0001) %MON dynstat_eta_sd               =   5.1111262597120E-09
(PID.TID 0000.0001) %MON dynstat_eta_del2             =   9.9615459727754E-14
(PID.TID 0000.0001) %MON dynstat_uvel_max             =   1.4939680403842E-08
(PID.TID 0000.0001) %MON dynstat_uvel_min             =  -1.6955595973917E-08
(PID.TID 0000.0001) %MON dynstat_uvel_mean            =   1.1945856460938E-13
(PID.TID 0000.0001) %MON dynstat_uvel_sd              =   4.6113644460603E-09
(PID.TID 0000.0001) %MON dynstat_uvel_del2            =   2.6661457097534E-13
(PID.TID 0000.0001) %MON dynstat_vvel_max             =   1.5253958227276E-08
(PID.TID 0000.0001) %MON dynstat_vvel_min             =  -1.7355736798810E-08
(PID.TID 0000.0001) %MON dynstat_vvel_mean            =   5.0776492829822E-14
(PID.TID 0000.0001) %MON dynstat_vvel_sd              =   4.7079230315901E-09
(PID.TID 0000.0001) %MON dynstat_vvel_del2            =   2.7692037332179E-13
(PID.TID 0000.0001) %MON dynstat_wvel_max             =   2.5152997643607E-14
(PID.TID 0000.0001) %MON dynstat_wvel_min             =  -1.6020788662363E-14
(PID.TID 0000.0001) %MON dynstat_wvel_mean            =   1.5234518518372E-27
(PID.TID 0000.0001) %MON dynstat_wvel_sd              =   9.0346583244414E-15
(PID.TID 0000.0001) %MON dynstat_wvel_del2            =   9.4803684986158E-20
(PID.TID 0000.0001) %MON dynstat_theta_max            =   2.0000000000000E+01
(PID.TID 0000.0001) %MON dynstat_theta_min            =   2.0000000000000E+01
(PID.TID 0000.0001) %MON dynstat_theta_mean           =   2.0000000000000E+01
(PID.TID 0000.0001) %MON dynstat_theta_sd             =   0.0000000000000E+00
(PID.TID 0000.0001) %MON dynstat_theta_del2           =   0.0000000000000E+00
(PID.TID 0000.0001) %MON dynstat_salt_max             =   3.0000000000000E+01
(PID.TID 0000.0001) %MON dynstat_salt_min             =   3.0000000000000E+01
(PID.TID 0000.0001) %MON dynstat_salt_mean            =   3.0000000000000E+01
(PID.TID 0000.0001) %MON dynstat_salt_sd              =   0.0000000000000E+00
(PID.TID 0000.0001) %MON dynstat_salt_del2            =   0.0000000000000E+00
(PID.TID 0000.0001) %MON trAdv_CFL_u_max              =   1.8339388185400E-08
(PID.TID 0000.0001) %MON trAdv_CFL_v_max              =   1.8771251522496E-08
(PID.TID 0000.0001) %MON trAdv_CFL_w_max              =   2.7152868733449E-14
(PID.TID 0000.0001) %MON advcfl_uvel_max              =   1.8312043651831E-08
(PID.TID 0000.0001) %MON advcfl_vvel_max              =   1.8744195742715E-08
(PID.TID 0000.0001) %MON advcfl_wvel_max              =   5.4330474910191E-14
(PID.TID 0000.0001) %MON advcfl_W_hf_max              =   0.0000000000000E+00
(PID.TID 0000.0001) %MON pe_b_mean                    =   2.5627263172679E-20
(PID.TID 0000.0001) %MON ke_max                       =   1.7150826798021E-16
(PID.TID 0000.0001) %MON ke_mean                      =   2.1626339896220E-17
(PID.TID 0000.0001) %MON ke_vol                       =   7.5645000000000E+15
(PID.TID 0000.0001) %MON vort_r_min                   =  -6.3968821962379E-13
(PID.TID 0000.0001) %MON vort_r_max                   =   5.1272625939929E-13
(PID.TID 0000.0001) %MON vort_a_mean                  =   8.2300000000000E-05
(PID.TID 0000.0001) %MON vort_a_sd                    =   7.1297555115530E-06
(PID.TID 0000.0001) %MON vort_p_mean                  =   8.3303658536586E-05
(PID.TID 0000.0001) %MON vort_p_sd                    =   1.7411470224785E-05
(PID.TID 0000.0001) %MON surfExpan_theta_mean         =   3.0587997355977E-26
(PID.TID 0000.0001) %MON surfExpan_salt_mean          =   4.6028700863917E-26
(PID.TID 0000.0001) // =======================================================
(PID.TID 0000.0001) // End MONITOR dynamic field statistics
(PID.TID 0000.0001) // =======================================================
 cg2d: Sum(rhs),rhsMax =  -2.56980024681951E-03  1.58510017541713E-09
 cg2d: Sum(rhs),rhsMax =  -2.57898787362905E-03  1.57945318404176E-09
 cg2d: Sum(rhs),rhsMax =  -2.58835244810194E-03  1.57373869562831E-09
 cg2d: Sum(rhs),rhsMax =  -2.59789618047362E-03  1.56795726898886E-09
 cg2d: Sum(rhs),rhsMax =  -2.60762133789139E-03  1.56210947319050E-09
 cg2d: Sum(rhs),rhsMax =  -2.61753023401778E-03  1.55619588871308E-09
 cg2d: Sum(rhs),rhsMax =  -2.62762523632208E-03  1.55021710608198E-09
 cg2d: Sum(rhs),rhsMax =  -2.63790875201611E-03  1.54417372706090E-09
 cg2d: Sum(rhs),rhsMax =  -2.64838324521697E-03  1.53806636327323E-09
 cg2d: Sum(rhs),rhsMax =  -2.65901774378221E-03  1.53191493226156E-09
 cg2d: Sum(rhs),rhsMax =  -2.66930716309941E-03  1.52600976262786E-09
 cg2d: Sum(rhs),rhsMax =  -2.67978687213384E-03  1.52004199980773E-09
 cg2d: Sum(rhs),rhsMax =  -2.69045930962673E-03  1.51401226941950E-09
 cg2d: Sum(rhs),rhsMax =  -2.70132696459295E-03  1.50792120703494E-09
 cg2d: Sum(rhs),rhsMax =  -2.71239237381323E-03  1.50176945808954E-09
 cg2d: Sum(rhs),rhsMax =  -2.72365813443110E-03  1.49555767769638E-09
(PID.TID 0000.0001)      cg2d_init_res =   2.34673796517967E-01
(PID.TID 0000.0001)      cg2d_iters(min,last) =      -1     549
(PID.TID 0000.0001)      cg2d_last_res =   9.67392173048247E-08
(PID.TID 0000.0001) // =======================================================
(PID.TID 0000.0001) // Begin MONITOR dynamic field statistics
(PID.TID 0000.0001) // =======================================================
(PID.TID 0000.0001) %MON time_tsnumber                =                   912
(PID.TID 0000.0001) %MON time_secondsf                =   4.9248000000000E+06
(PID.TID 0000.0001) %MON dynstat_eta_max              =   1.1495150484710E-08
(PID.TID 0000.0001) %MON dynstat_eta_min              =  -2.0215133379166E-08
(PID.TID 0000.0001) %MON dynstat_eta_mean             =   3.9255728607654E-13
(PID.TID 0000.0001) %MON dynstat_eta_sd               =   5.0968058234488E-09
(PID.TID 0000.0001) %MON dynstat_eta_del2             =   9.7157623314070E-14
(PID.TID 0000.0001) %MON dynstat_uvel_max             =   1.4761870986818E-08
(PID.TID 0000.0001) %MON dynstat_uvel_min             =  -1.6491557239094E-08
(PID.TID 0000.0001) %MON dynstat_uvel_mean            =   2.8495310927962E-14
(PID.TID 0000.0001) %MON dynstat_uvel_sd              =   4.5326017170509E-09
(PID.TID 0000.0001) %MON dynstat_uvel_del2            =   2.6181655002812E-13
(PID.TID 0000.0001) %MON dynstat_vvel_max             =   1.5631360617047E-08
(PID.TID 0000.0001) %MON dynstat_vvel_min             =  -1.6962131461495E-08
(PID.TID 0000.0001) %MON dynstat_vvel_mean            =   5.2712594008419E-14
(PID.TID 0000.0001) %MON dynstat_vvel_sd              =   4.6647092084984E-09
(PID.TID 0000.0001) %MON dynstat_vvel_del2            =   2.6939490225533E-13
(PID.TID 0000.0001) %MON dynstat_wvel_max             =   2.5153181453241E-14
(PID.TID 0000.0001) %MON dynstat_wvel_min             =  -1.4867292568166E-14
(PID.TID 0000.0001) %MON dynstat_wvel_mean            =  -1.7028576640546E-27
(PID.TID 0000.0001) %MON dynstat_wvel_sd              =   8.9774755258691E-15
(PID.TID 0000.0001) %MON dynstat_wvel_del2            =   9.3035757389970E-20
(PID.TID 0000.0001) %MON dynstat_theta_max            =   2.0000000000000E+01
(PID.TID 0000.0001) %MON dynstat_theta_min            =   2.0000000000000E+01
(PID.TID 0000.0001) %MON dynstat_theta_mean           =   2.0000000000000E+01
(PID.TID 0000.0001) %MON dynstat_theta_sd             =   0.0000000000000E+00
(PID.TID 0000.0001) %MON dynstat_theta_del2           =   0.0000000000000E+00
(PID.TID 0000.0001) %MON dynstat_salt_max             =   3.0000000000000E+01
(PID.TID 0000.0001) %MON dynstat_salt_min             =   3.0000000000000E+01
(PID.TID 0000.0001) %MON dynstat_salt_mean            =   3.0000000000000E+01
(PID.TID 0000.0001) %MON dynstat_salt_sd              =   0.0000000000000E+00
(PID.TID 0000.0001) %MON dynstat_salt_del2            =   0.0000000000000E+00
(PID.TID 0000.0001) %MON trAdv_CFL_u_max              =   1.7846342878537E-08
(PID.TID 0000.0001) %MON trAdv_CFL_v_max              =   1.8351533719311E-08
(PID.TID 0000.0001) %MON trAdv_CFL_w_max              =   2.7180041560637E-14
(PID.TID 0000.0001) %MON advcfl_uvel_max              =   1.7810881818222E-08
(PID.TID 0000.0001) %MON advcfl_vvel_max              =   1.8319101978415E-08
(PID.TID 0000.0001) %MON advcfl_wvel_max              =   5.4330871939001E-14
(PID.TID 0000.0001) %MON advcfl_W_hf_max              =   0.0000000000000E+00
(PID.TID 0000.0001) %MON pe_b_mean                    =   2.5483858590678E-20
(PID.TID 0000.0001) %MON ke_max                       =   1.7550916391941E-16
(PID.TID 0000.0001) %MON ke_mean                      =   2.1066011444246E-17
(PID.TID 0000.0001) %MON ke_vol                       =   7.5645000000000E+15
(PID.TID 0000.0001) %MON vort_r_min                   =  -6.0679898821048E-13
(PID.TID 0000.0001) %MON vort_r_max                   =   5.0816569501014E-13
(PID.TID 0000.0001) %MON vort_a_mean                  =   8.2300000000000E-05
(PID.TID 0000.0001) %MON vort_a_sd                    =   7.1297555115489E-06
(PID.TID 0000.0001) %MON vort_p_mean                  =   8.3303658536586E-05
(PID.TID 0000.0001) %MON vort_p_sd                    =   1.7411470224881E-05
(PID.TID 0000.0001) %MON surfExpan_theta_mean         =  -3.4028856372090E-26
(PID.TID 0000.0001) %MON surfExpan_salt_mean          =  -5.1112905694720E-26
(PID.TID 0000.0001) // =======================================================
(PID.TID 0000.0001) // End MONITOR dynamic field statistics
(PID.TID 0000.0001) // =======================================================
 cg2d: Sum(rhs),rhsMax =  -2.73512689177337E-03  1.48928653068326E-09
 cg2d: Sum(rhs),rhsMax =  -2.74680135562811E-03  1.48295669126989E-09
 cg2d: Sum(rhs),rhsMax =  -2.75868429049069E-03  1.47656884323383E-09
 cg2d: Sum(rhs),rhsMax =  -2.75680963564792E-03  1.47757285526860E-09
 cg2d: Sum(rhs),rhsMax =  -2.74456066847975E-03  1.48416719013463E-09
 cg2d: Sum(rhs),rhsMax =  -2.73260388471898E-03  1.49066124385311E-09
 cg2d: Sum(rhs),rhsMax =  -2.72093316972340E-03  1.49705496931729E-09
 cg2d: Sum(rhs),rhsMax =  -2.70954259260178E-03  1.50334833415905E-09
 cg2d: Sum(rhs),rhsMax =  -2.69842640720328E-03  1.50954132099408E-09
 cg2d: Sum(rhs),rhsMax =  -2.68757904125585E-03  1.51563392717351E-09
 cg2d: Sum(rhs),rhsMax =  -2.67699510858452E-03  1.52162616499701E-09
 cg2d: Sum(rhs),rhsMax =  -2.66666936496028E-03  1.52751806148210E-09
 cg2d: Sum(rhs),rhsMax =  -2.65659673699165E-03  1.53330965855051E-09
 cg2d: Sum(rhs),rhsMax =  -2.64677230807249E-03  1.53900101280973E-09
 cg2d: Sum(rhs),rhsMax =  -2.63719128705983E-03  1.54459219571796E-09
 cg2d: Sum(rhs),rhsMax =  -2.62784904479610E-03  1.55008329337282E-09
(PID.TID 0000.0001)      cg2d_init_res =   2.22064385682590E-01
(PID.TID 0000.0001)      cg2d_iters(min,last) =      -1     549
(PID.TID 0000.0001)      cg2d_last_res =   9.23150117414372E-08
(PID.TID 0000.0001) // =======================================================
(PID.TID 0000.0001) // Begin MONITOR dynamic field statistics
(PID.TID 0000.0001) // =======================================================
(PID.TID 0000.0001) %MON time_tsnumber                =                   928
(PID.TID 0000.0001) %MON time_secondsf                =   5.0112000000000E+06
(PID.TID 0000.0001) %MON dynstat_eta_max              =   1.1821220673630E-08
(PID.TID 0000.0001) %MON dynstat_eta_min              =  -2.0286881968374E-08
(PID.TID 0000.0001) %MON dynstat_eta_mean             =   3.9255700479880E-13
(PID.TID 0000.0001) %MON dynstat_eta_sd               =   5.0755237917015E-09
(PID.TID 0000.0001) %MON dynstat_eta_del2             =   9.4840731059985E-14
(PID.TID 0000.0001) %MON dynstat_uvel_max             =   1.4622474584324E-08
(PID.TID 0000.0001) %MON dynstat_uvel_min             =  -1.5917413528466E-08
(PID.TID 0000.0001) %MON dynstat_uvel_mean            =  -6.4570458680133E-14
(PID.TID 0000.0001) %MON dynstat_uvel_sd              =   4.4619450777327E-09
(PID.TID 0000.0001) %MON dynstat_uvel_del2            =   2.5739793694298E-13
(PID.TID 0000.0001) %MON dynstat_vvel_max             =   1.6007108454540E-08
(PID.TID 0000.0001) %MON dynstat_vvel_min             =  -1.6477493716046E-08
(PID.TID 0000.0001) %MON dynstat_vvel_mean            =   5.5235452563050E-14
(PID.TID 0000.0001) %MON dynstat_vvel_sd              =   4.6171762529741E-09
(PID.TID 0000.0001) %MON dynstat_vvel_del2            =   2.6368755194429E-13
(PID.TID 0000.0001) %MON dynstat_wvel_max             =   2.4645819556302E-14
(PID.TID 0000.0001) %MON dynstat_wvel_min             =  -1.3397448048735E-14
(PID.TID 0000.0001) %MON dynstat_wvel_mean            =  -4.2292014272473E-28
(PID.TID 0000.0001) %MON dynstat_wvel_sd              =   8.9488264672073E-15
(PID.TID 0000.0001) %MON dynstat_wvel_del2            =   9.1285400386855E-20
(PID.TID 0000.0001) %MON dynstat_theta_max            =   2.0000000000000E+01
(PID.TID 0000.0001) %MON dynstat_theta_min            =   2.0000000000000E+01
(PID.TID 0000.0001) %MON dynstat_theta_mean           =   2.0000000000000E+01
(PID.TID 0000.0001) %MON dynstat_theta_sd             =   0.0000000000000E+00
(PID.TID 0000.0001) %MON dynstat_theta_del2           =   0.0000000000000E+00
(PID.TID 0000.0001) %MON dynstat_salt_max             =   3.0000000000000E+01
(PID.TID 0000.0001) %MON dynstat_salt_min             =   3.0000000000000E+01
(PID.TID 0000.0001) %MON dynstat_salt_mean            =   3.0000000000000E+01
(PID.TID 0000.0001) %MON dynstat_salt_sd              =   0.0000000000000E+00
(PID.TID 0000.0001) %MON dynstat_salt_del2            =   0.0000000000000E+00
(PID.TID 0000.0001) %MON trAdv_CFL_u_max              =   1.7233693881000E-08
(PID.TID 0000.0001) %MON trAdv_CFL_v_max              =   1.7833075349649E-08
(PID.TID 0000.0001) %MON trAdv_CFL_w_max              =   2.6668627981152E-14
(PID.TID 0000.0001) %MON advcfl_uvel_max              =   1.7190806610743E-08
(PID.TID 0000.0001) %MON advcfl_vvel_max              =   1.7795693213329E-08
(PID.TID 0000.0001) %MON advcfl_wvel_max              =   5.3234970241611E-14
(PID.TID 0000.0001) %MON advcfl_W_hf_max              =   0.0000000000000E+00
(PID.TID 0000.0001) %MON pe_b_mean                    =   2.5271484017858E-20
(PID.TID 0000.0001) %MON ke_max                       =   1.8050846918474E-16
(PID.TID 0000.0001) %MON ke_mean                      =   2.0529839952364E-17
(PID.TID 0000.0001) %MON ke_vol                       =   7.5645000000000E+15
(PID.TID 0000.0001) %MON vort_r_min                   =  -5.8663112883382E-13
(PID.TID 0000.0001) %MON vort_r_max                   =   5.0315954529165E-13
(PID.TID 0000.0001) %MON vort_a_mean                  =   8.2300000000000E-05
(PID.TID 0000.0001) %MON vort_a_sd                    =   7.1297555115570E-06
(PID.TID 0000.0001) %MON vort_p_mean                  =   8.3303658536586E-05
(PID.TID 0000.0001) %MON vort_p_sd                    =   1.7411470224992E-05
(PID.TID 0000.0001) %MON surfExpan_theta_mean         =  -8.5979050971885E-27
(PID.TID 0000.0001) %MON surfExpan_salt_mean          =  -1.2869123461374E-26
(PID.TID 0000.0001) // =======================================================
(PID.TID 0000.0001) // End MONITOR dynamic field statistics
(PID.TID 0000.0001) // =======================================================
 cg2d: Sum(rhs),rhsMax =  -2.61874107569795E-03  1.55547440665979E-09
 cg2d: Sum(rhs),rhsMax =  -2.60986301130366E-03  1.56076565104321E-09
 cg2d: Sum(rhs),rhsMax =  -2.60121060576835E-03  1.56595715670331E-09
 cg2d: Sum(rhs),rhsMax =  -2.59277973008638E-03  1.57104906832476E-09
 cg2d: Sum(rhs),rhsMax =  -2.58456638438281E-03  1.57604154522627E-09
 cg2d: Sum(rhs),rhsMax =  -2.57656667131640E-03  1.58093476114332E-09
 cg2d: Sum(rhs),rhsMax =  -2.56877680572775E-03  1.58572890435379E-09
 cg2d: Sum(rhs),rhsMax =  -2.56119308920898E-03  1.59042417692608E-09
 cg2d: Sum(rhs),rhsMax =  -2.55381196423752E-03  1.59502079716825E-09
 cg2d: Sum(rhs),rhsMax =  -2.54662995124619E-03  1.59951899537034E-09
 cg2d: Sum(rhs),rhsMax =  -2.53964365812764E-03  1.60391901732780E-09
 cg2d: Sum(rhs),rhsMax =  -2.53284979794122E-03  1.60822112266862E-09
 cg2d: Sum(rhs),rhsMax =  -2.52624515050798E-03  1.61242558519845E-09
 cg2d: Sum(rhs),rhsMax =  -2.51982661168731E-03  1.61653269275582E-09
 cg2d: Sum(rhs),rhsMax =  -2.51359113194678E-03  1.62054274714818E-09
 cg2d: Sum(rhs),rhsMax =  -2.50753575094134E-03  1.62445606408106E-09
(PID.TID 0000.0001)      cg2d_init_res =   2.07968622780242E-01
(PID.TID 0000.0001)      cg2d_iters(min,last) =      -1     548
(PID.TID 0000.0001)      cg2d_last_res =   9.82571923873723E-08
(PID.TID 0000.0001) // =======================================================
(PID.TID 0000.0001) // Begin MONITOR dynamic field statistics
(PID.TID 0000.0001) // =======================================================
(PID.TID 0000.0001) %MON time_tsnumber                =                   944
(PID.TID 0000.0001) %MON time_secondsf                =   5.0976000000000E+06
(PID.TID 0000.0001) %MON dynstat_eta_max              =   1.1892161618903E-08
(PID.TID 0000.0001) %MON dynstat_eta_min              =  -2.0178209787087E-08
(PID.TID 0000.0001) %MON dynstat_eta_mean             =   3.9255668751533E-13
(PID.TID 0000.0001) %MON dynstat_eta_sd               =   5.0457373651430E-09
(PID.TID 0000.0001) %MON dynstat_eta_del2             =   9.2662592981588E-14
(PID.TID 0000.0001) %MON dynstat_uvel_max             =   1.4517503728604E-08
(PID.TID 0000.0001) %MON dynstat_uvel_min             =  -1.5249101151319E-08
(PID.TID 0000.0001) %MON dynstat_uvel_mean            =  -1.5476604723939E-13
(PID.TID 0000.0001) %MON dynstat_uvel_sd              =   4.3994549001178E-09
(PID.TID 0000.0001) %MON dynstat_uvel_del2            =   2.5300828210115E-13
(PID.TID 0000.0001) %MON dynstat_vvel_max             =   1.6363160477458E-08
(PID.TID 0000.0001) %MON dynstat_vvel_min             =  -1.5916391614265E-08
(PID.TID 0000.0001) %MON dynstat_vvel_mean            =   5.8372260020208E-14
(PID.TID 0000.0001) %MON dynstat_vvel_sd              =   4.5649937585251E-09
(PID.TID 0000.0001) %MON dynstat_vvel_del2            =   2.5987515104497E-13
(PID.TID 0000.0001) %MON dynstat_wvel_max             =   2.3586641917372E-14
(PID.TID 0000.0001) %MON dynstat_wvel_min             =  -1.4429028558638E-14
(PID.TID 0000.0001) %MON dynstat_wvel_mean            =  -8.9071854436162E-28
(PID.TID 0000.0001) %MON dynstat_wvel_sd              =   8.9466607320983E-15
(PID.TID 0000.0001) %MON dynstat_wvel_del2            =   8.9656425392620E-20
(PID.TID 0000.0001) %MON dynstat_theta_max            =   2.0000000000000E+01
(PID.TID 0000.0001) %MON dynstat_theta_min            =   2.0000000000000E+01
(PID.TID 0000.0001) %MON dynstat_theta_mean           =   2.0000000000000E+01
(PID.TID 0000.0001) %MON dynstat_theta_sd             =   0.0000000000000E+00
(PID.TID 0000.0001) %MON dynstat_theta_del2           =   0.0000000000000E+00
(PID.TID 0000.0001) %MON dynstat_salt_max             =   3.0000000000000E+01
(PID.TID 0000.0001) %MON dynstat_salt_min             =   3.0000000000000E+01
(PID.TID 0000.0001) %MON dynstat_salt_mean            =   3.0000000000000E+01
(PID.TID 0000.0001) %MON dynstat_salt_sd              =   0.0000000000000E+00
(PID.TID 0000.0001) %MON dynstat_salt_del2            =   0.0000000000000E+00
(PID.TID 0000.0001) %MON trAdv_CFL_u_max              =   1.6515457291420E-08
(PID.TID 0000.0001) %MON trAdv_CFL_v_max              =   1.7650440787658E-08
(PID.TID 0000.0001) %MON trAdv_CFL_w_max              =   2.5563060995193E-14
(PID.TID 0000.0001) %MON advcfl_uvel_max              =   1.6469029243424E-08
(PID.TID 0000.0001) %MON advcfl_vvel_max              =   1.7672213315655E-08
(PID.TID 0000.0001) %MON advcfl_wvel_max              =   5.0947146541525E-14
(PID.TID 0000.0001) %MON advcfl_W_hf_max              =   0.0000000000000E+00
(PID.TID 0000.0001) %MON pe_b_mean                    =   2.4975735863571E-20
(PID.TID 0000.0001) %MON ke_max                       =   1.8648004340038E-16
(PID.TID 0000.0001) %MON ke_mean                      =   2.0015489853498E-17
(PID.TID 0000.0001) %MON ke_vol                       =   7.5645000000000E+15
(PID.TID 0000.0001) %MON vort_r_min                   =  -6.2338995028033E-13
(PID.TID 0000.0001) %MON vort_r_max                   =   4.9756492212889E-13
(PID.TID 0000.0001) %MON vort_a_mean                  =   8.2300000000000E-05
(PID.TID 0000.0001) %MON vort_a_sd                    =   7.1297555115569E-06
(PID.TID 0000.0001) %MON vort_p_mean                  =   8.3303658536585E-05
(PID.TID 0000.0001) %MON vort_p_sd                    =   1.7411470225107E-05
(PID.TID 0000.0001) %MON surfExpan_theta_mean         =  -1.7842203436974E-26
(PID.TID 0000.0001) %MON surfExpan_salt_mean          =  -2.6796404889642E-26
(PID.TID 0000.0001) // =======================================================
(PID.TID 0000.0001) // End MONITOR dynamic field statistics
(PID.TID 0000.0001) // =======================================================
 cg2d: Sum(rhs),rhsMax =  -2.50165758671484E-03  1.62827297308018E-09
 cg2d: Sum(rhs),rhsMax =  -2.49595382667187E-03  1.63199381741312E-09
 cg2d: Sum(rhs),rhsMax =  -2.49042172708041E-03  1.63561895400740E-09
 cg2d: Sum(rhs),rhsMax =  -2.48505862425689E-03  1.63914875336646E-09
 cg2d: Sum(rhs),rhsMax =  -2.47986191962057E-03  1.64258359948270E-09
 cg2d: Sum(rhs),rhsMax =  -2.47482907555476E-03  1.64592388974809E-09
 cg2d: Sum(rhs),rhsMax =  -2.46995760104143E-03  1.64917003486217E-09
 cg2d: Sum(rhs),rhsMax =  -2.46524508901798E-03  1.65232245873744E-09
 cg2d: Sum(rhs),rhsMax =  -2.46068918708294E-03  1.65538159840155E-09
 cg2d: Sum(rhs),rhsMax =  -2.45628757894730E-03  1.65834790389814E-09
 cg2d: Sum(rhs),rhsMax =  -2.45203803659650E-03  1.66122183818378E-09
 cg2d: Sum(rhs),rhsMax =  -2.44793834045690E-03  1.66400387702335E-09
 cg2d: Sum(rhs),rhsMax =  -2.44398636693269E-03  1.66669450888255E-09
 cg2d: Sum(rhs),rhsMax =  -2.44018000886574E-03  1.66929423481767E-09
 cg2d: Sum(rhs),rhsMax =  -2.43651721894159E-03  1.67180356836332E-09
 cg2d: Sum(rhs),rhsMax =  -2.43299596354772E-03  1.67422303636484E-09
(PID.TID 0000.0001)      cg2d_init_res =   1.98183056710994E-01
(PID.TID 0000.0001)      cg2d_iters(min,last) =      -1     547
(PID.TID 0000.0001)      cg2d_last_res =   9.91187133207113E-08
(PID.TID 0000.0001) // =======================================================
(PID.TID 0000.0001) // Begin MONITOR dynamic field statistics
(PID.TID 0000.0001) // =======================================================
(PID.TID 0000.0001) %MON time_tsnumber                =                   960
(PID.TID 0000.0001) %MON time_secondsf                =   5.1840000000000E+06
(PID.TID 0000.0001) %MON dynstat_eta_max              =   1.1713724388460E-08
(PID.TID 0000.0001) %MON dynstat_eta_min              =  -1.9887240679483E-08
(PID.TID 0000.0001) %MON dynstat_eta_mean             =   3.9255631801323E-13
(PID.TID 0000.0001) %MON dynstat_eta_sd               =   5.0072554806206E-09
(PID.TID 0000.0001) %MON dynstat_eta_del2             =   9.0620483345109E-14
(PID.TID 0000.0001) %MON dynstat_uvel_max             =   1.4440965232018E-08
(PID.TID 0000.0001) %MON dynstat_uvel_min             =  -1.4505077475286E-08
(PID.TID 0000.0001) %MON dynstat_uvel_mean            =  -2.3727344122929E-13
(PID.TID 0000.0001) %MON dynstat_uvel_sd              =   4.3437620343557E-09
(PID.TID 0000.0001) %MON dynstat_uvel_del2            =   2.4833853457908E-13
(PID.TID 0000.0001) %MON dynstat_vvel_max             =   1.6682790760318E-08
(PID.TID 0000.0001) %MON dynstat_vvel_min             =  -1.5310243671241E-08
(PID.TID 0000.0001) %MON dynstat_vvel_mean            =   6.2077170681269E-14
(PID.TID 0000.0001) %MON dynstat_vvel_sd              =   4.5091836077661E-09
(PID.TID 0000.0001) %MON dynstat_vvel_del2            =   2.5788533993469E-13
(PID.TID 0000.0001) %MON dynstat_wvel_max             =   2.2011708732395E-14
(PID.TID 0000.0001) %MON dynstat_wvel_min             =  -1.6308614642080E-14
(PID.TID 0000.0001) %MON dynstat_wvel_mean            =  -5.7721896003722E-28
(PID.TID 0000.0001) %MON dynstat_wvel_sd              =   8.9645835215493E-15
(PID.TID 0000.0001) %MON dynstat_wvel_del2            =   8.8028823692865E-20
(PID.TID 0000.0001) %MON dynstat_theta_max            =   2.0000000000000E+01
(PID.TID 0000.0001) %MON dynstat_theta_min            =   2.0000000000000E+01
(PID.TID 0000.0001) %MON dynstat_theta_mean           =   2.0000000000000E+01
(PID.TID 0000.0001) %MON dynstat_theta_sd             =   0.0000000000000E+00
(PID.TID 0000.0001) %MON dynstat_theta_del2           =   0.0000000000000E+00
(PID.TID 0000.0001) %MON dynstat_salt_max             =   3.0000000000000E+01
(PID.TID 0000.0001) %MON dynstat_salt_min             =   3.0000000000000E+01
(PID.TID 0000.0001) %MON dynstat_salt_mean            =   3.0000000000000E+01
(PID.TID 0000.0001) %MON dynstat_salt_sd              =   0.0000000000000E+00
(PID.TID 0000.0001) %MON dynstat_salt_del2            =   0.0000000000000E+00
(PID.TID 0000.0001) %MON trAdv_CFL_u_max              =   1.5717217507829E-08
(PID.TID 0000.0001) %MON trAdv_CFL_v_max              =   1.7998455468162E-08
(PID.TID 0000.0001) %MON trAdv_CFL_w_max              =   2.3897259697891E-14
(PID.TID 0000.0001) %MON advcfl_uvel_max              =   1.5665483673309E-08
(PID.TID 0000.0001) %MON advcfl_vvel_max              =   1.8017414021143E-08
(PID.TID 0000.0001) %MON advcfl_wvel_max              =   4.7545290861972E-14
(PID.TID 0000.0001) %MON advcfl_W_hf_max              =   0.0000000000000E+00
(PID.TID 0000.0001) %MON pe_b_mean                    =   2.4596228057861E-20
(PID.TID 0000.0001) %MON ke_max                       =   1.9288688295916E-16
(PID.TID 0000.0001) %MON ke_mean                      =   1.9520825899498E-17
(PID.TID 0000.0001) %MON ke_vol                       =   7.5645000000000E+15
(PID.TID 0000.0001) %MON vort_r_min                   =  -6.5027421739667E-13
(PID.TID 0000.0001) %MON vort_r_max                   =   4.9125862550516E-13
(PID.TID 0000.0001) %MON vort_a_mean                  =   8.2300000000000E-05
(PID.TID 0000.0001) %MON vort_a_sd                    =   7.1297555115554E-06
(PID.TID 0000.0001) %MON vort_p_mean                  =   8.3303658536585E-05
(PID.TID 0000.0001) %MON vort_p_sd                    =   1.7411470225223E-05
(PID.TID 0000.0001) %MON surfExpan_theta_mean         =  -1.1413894655901E-26
(PID.TID 0000.0001) %MON surfExpan_salt_mean          =  -1.7171409778019E-26
(PID.TID 0000.0001) // =======================================================
(PID.TID 0000.0001) // End MONITOR dynamic field statistics
(PID.TID 0000.0001) // =======================================================
 cg2d: Sum(rhs),rhsMax =  -2.42961431775054E-03  1.67655317487106E-09
 cg2d: Sum(rhs),rhsMax =  -2.42637035950070E-03  1.67879453549860E-09
 cg2d: Sum(rhs),rhsMax =  -2.42326222464907E-03  1.68094768023212E-09
 cg2d: Sum(rhs),rhsMax =  -2.42028805522503E-03  1.68301318340883E-09
 cg2d: Sum(rhs),rhsMax =  -2.41744607728450E-03  1.68499163074400E-09
 cg2d: Sum(rhs),rhsMax =  -2.41473452403909E-03  1.68688361999405E-09
 cg2d: Sum(rhs),rhsMax =  -2.41215166439124E-03  1.68868975994741E-09
 cg2d: Sum(rhs),rhsMax =  -2.40969581218735E-03  1.69041067122461E-09
 cg2d: Sum(rhs),rhsMax =  -2.40736530915086E-03  1.69204698519665E-09
 cg2d: Sum(rhs),rhsMax =  -2.40515853272286E-03  1.69359934479602E-09
 cg2d: Sum(rhs),rhsMax =  -2.40307387979337E-03  1.69506840342787E-09
 cg2d: Sum(rhs),rhsMax =  -2.40110979292553E-03  1.69645482577144E-09
 cg2d: Sum(rhs),rhsMax =  -2.39926470504754E-03  1.69775928669580E-09
 cg2d: Sum(rhs),rhsMax =  -2.39753713766455E-03  1.69898247221773E-09
 cg2d: Sum(rhs),rhsMax =  -2.39592560809303E-03  1.70012507781097E-09
 cg2d: Sum(rhs),rhsMax =  -2.39442865453618E-03  1.70118780994180E-09
(PID.TID 0000.0001)      cg2d_init_res =   1.91653035337292E-01
(PID.TID 0000.0001)      cg2d_iters(min,last) =      -1     545
(PID.TID 0000.0001)      cg2d_last_res =   9.95802856875843E-08
(PID.TID 0000.0001) // =======================================================
(PID.TID 0000.0001) // Begin MONITOR dynamic field statistics
(PID.TID 0000.0001) // =======================================================
(PID.TID 0000.0001) %MON time_tsnumber                =                   976
(PID.TID 0000.0001) %MON time_secondsf                =   5.2704000000000E+06
(PID.TID 0000.0001) %MON dynstat_eta_max              =   1.1306233087439E-08
(PID.TID 0000.0001) %MON dynstat_eta_min              =  -1.9427995356099E-08
(PID.TID 0000.0001) %MON dynstat_eta_mean             =   3.9255581834110E-13
(PID.TID 0000.0001) %MON dynstat_eta_sd               =   4.9610436676738E-09
(PID.TID 0000.0001) %MON dynstat_eta_del2             =   8.8711162072082E-14
(PID.TID 0000.0001) %MON dynstat_uvel_max             =   1.4644474957428E-08
(PID.TID 0000.0001) %MON dynstat_uvel_min             =  -1.3700199005509E-08
(PID.TID 0000.0001) %MON dynstat_uvel_mean            =  -3.0769212379234E-13
(PID.TID 0000.0001) %MON dynstat_uvel_sd              =   4.2923291864930E-09
(PID.TID 0000.0001) %MON dynstat_uvel_del2            =   2.4317611557219E-13
(PID.TID 0000.0001) %MON dynstat_vvel_max             =   1.6949745243218E-08
(PID.TID 0000.0001) %MON dynstat_vvel_min             =  -1.4683187460105E-08
(PID.TID 0000.0001) %MON dynstat_vvel_mean            =   6.6234296801506E-14
(PID.TID 0000.0001) %MON dynstat_vvel_sd              =   4.4518736611804E-09
(PID.TID 0000.0001) %MON dynstat_vvel_del2            =   2.5747226382076E-13
(PID.TID 0000.0001) %MON dynstat_wvel_max             =   2.0034506056366E-14
(PID.TID 0000.0001) %MON dynstat_wvel_min             =  -1.7906085847397E-14
(PID.TID 0000.0001) %MON dynstat_wvel_mean            =  -8.8258118746536E-28
(PID.TID 0000.0001) %MON dynstat_wvel_sd              =   8.9932470757337E-15
(PID.TID 0000.0001) %MON dynstat_wvel_del2            =   8.6459943517913E-20
(PID.TID 0000.0001) %MON dynstat_theta_max            =   2.0000000000000E+01
(PID.TID 0000.0001) %MON dynstat_theta_min            =   2.0000000000000E+01
(PID.TID 0000.0001) %MON dynstat_theta_mean           =   2.0000000000000E+01
(PID.TID 0000.0001) %MON dynstat_theta_sd             =   0.0000000000000E+00
(PID.TID 0000.0001) %MON dynstat_theta_del2           =   0.0000000000000E+00
(PID.TID 0000.0001) %MON dynstat_salt_max             =   3.0000000000000E+01
(PID.TID 0000.0001) %MON dynstat_salt_min             =   3.0000000000000E+01
(PID.TID 0000.0001) %MON dynstat_salt_mean            =   3.0000000000000E+01
(PID.TID 0000.0001) %MON dynstat_salt_sd              =   0.0000000000000E+00
(PID.TID 0000.0001) %MON dynstat_salt_del2            =   0.0000000000000E+00
(PID.TID 0000.0001) %MON trAdv_CFL_u_max              =   1.5801487769190E-08
(PID.TID 0000.0001) %MON trAdv_CFL_v_max              =   1.8290929147854E-08
(PID.TID 0000.0001) %MON trAdv_CFL_w_max              =   2.1739888385097E-14
(PID.TID 0000.0001) %MON advcfl_uvel_max              =   1.5816032954022E-08
(PID.TID 0000.0001) %MON advcfl_vvel_max              =   1.8305724862676E-08
(PID.TID 0000.0001) %MON advcfl_wvel_max              =   4.3274533081750E-14
(PID.TID 0000.0001) %MON advcfl_W_hf_max              =   0.0000000000000E+00
(PID.TID 0000.0001) %MON pe_b_mean                    =   2.4144327292559E-20
(PID.TID 0000.0001) %MON ke_max                       =   1.9926092257184E-16
(PID.TID 0000.0001) %MON ke_mean                      =   1.9043904298071E-17
(PID.TID 0000.0001) %MON ke_vol                       =   7.5645000000000E+15
(PID.TID 0000.0001) %MON vort_r_min                   =  -6.6775835719685E-13
(PID.TID 0000.0001) %MON vort_r_max                   =   4.8414032017933E-13
(PID.TID 0000.0001) %MON vort_a_mean                  =   8.2300000000001E-05
(PID.TID 0000.0001) %MON vort_a_sd                    =   7.1297555115512E-06
(PID.TID 0000.0001) %MON vort_p_mean                  =   8.3303658536586E-05
(PID.TID 0000.0001) %MON vort_p_sd                    =   1.7411470225334E-05
(PID.TID 0000.0001) %MON surfExpan_theta_mean         =  -1.7638140664408E-26
(PID.TID 0000.0001) %MON surfExpan_salt_mean          =  -2.6438708289995E-26
(PID.TID 0000.0001) // =======================================================
(PID.TID 0000.0001) // End MONITOR dynamic field statistics
(PID.TID 0000.0001) // =======================================================
 cg2d: Sum(rhs),rhsMax =  -2.39304481688626E-03  1.70217138501842E-09
 cg2d: Sum(rhs),rhsMax =  -2.39177272340948E-03  1.70307652880372E-09
 cg2d: Sum(rhs),rhsMax =  -2.39061094351485E-03  1.70390397800338E-09
 cg2d: Sum(rhs),rhsMax =  -2.38955815764850E-03  1.70465447745211E-09
 cg2d: Sum(rhs),rhsMax =  -2.38861300932287E-03  1.70532878198466E-09
 cg2d: Sum(rhs),rhsMax =  -2.38777418653727E-03  1.70592765609462E-09
 cg2d: Sum(rhs),rhsMax =  -2.38704026558284E-03  1.70645187239885E-09
 cg2d: Sum(rhs),rhsMax =  -2.38641007676192E-03  1.70690221462444E-09
 cg2d: Sum(rhs),rhsMax =  -2.38588234511982E-03  1.70727947326445E-09
 cg2d: Sum(rhs),rhsMax =  -2.38545579187848E-03  1.70758444852990E-09
 cg2d: Sum(rhs),rhsMax =  -2.38512920860517E-03  1.70781794727791E-09
 cg2d: Sum(rhs),rhsMax =  -2.38490138787107E-03  1.70798078647891E-09
 cg2d: Sum(rhs),rhsMax =  -2.38477110724536E-03  1.70807379062785E-09
 cg2d: Sum(rhs),rhsMax =  -2.38473717725243E-03  1.70809779219597E-09
 cg2d: Sum(rhs),rhsMax =  -2.38479841816920E-03  1.70805363134483E-09
 cg2d: Sum(rhs),rhsMax =  -2.38495361738746E-03  1.70794215618050E-09
(PID.TID 0000.0001)      cg2d_init_res =   1.87617026590152E-01
(PID.TID 0000.0001)      cg2d_iters(min,last) =      -1     539
(PID.TID 0000.0001)      cg2d_last_res =   9.66113004983311E-08
(PID.TID 0000.0001) // =======================================================
(PID.TID 0000.0001) // Begin MONITOR dynamic field statistics
(PID.TID 0000.0001) // =======================================================
(PID.TID 0000.0001) %MON time_tsnumber                =                   992
(PID.TID 0000.0001) %MON time_secondsf                =   5.3568000000000E+06
(PID.TID 0000.0001) %MON dynstat_eta_max              =   1.1174984996453E-08
(PID.TID 0000.0001) %MON dynstat_eta_min              =  -1.8784040134747E-08
(PID.TID 0000.0001) %MON dynstat_eta_mean             =   3.9255482078580E-13
(PID.TID 0000.0001) %MON dynstat_eta_sd               =   4.9088767067457E-09
(PID.TID 0000.0001) %MON dynstat_eta_del2             =   8.6930500657119E-14
(PID.TID 0000.0001) %MON dynstat_uvel_max             =   1.4815149762454E-08
(PID.TID 0000.0001) %MON dynstat_uvel_min             =  -1.2855103696438E-08
(PID.TID 0000.0001) %MON dynstat_uvel_mean            =  -3.6227768971157E-13
(PID.TID 0000.0001) %MON dynstat_uvel_sd              =   4.2419812942338E-09
(PID.TID 0000.0001) %MON dynstat_uvel_del2            =   2.3744184287021E-13
(PID.TID 0000.0001) %MON dynstat_vvel_max             =   1.7149011267387E-08
(PID.TID 0000.0001) %MON dynstat_vvel_min             =  -1.4110958558891E-08
(PID.TID 0000.0001) %MON dynstat_vvel_mean            =   7.0664930695568E-14
(PID.TID 0000.0001) %MON dynstat_vvel_sd              =   4.3958208430836E-09
(PID.TID 0000.0001) %MON dynstat_vvel_del2            =   2.5823261305209E-13
(PID.TID 0000.0001) %MON dynstat_wvel_max             =   2.1726640750952E-14
(PID.TID 0000.0001) %MON dynstat_wvel_min             =  -1.9185697769375E-14
(PID.TID 0000.0001) %MON dynstat_wvel_mean            =   6.7470205765075E-28
(PID.TID 0000.0001) %MON dynstat_wvel_sd              =   9.0222843027459E-15
(PID.TID 0000.0001) %MON dynstat_wvel_del2            =   8.4947985695991E-20
(PID.TID 0000.0001) %MON dynstat_theta_max            =   2.0000000000000E+01
(PID.TID 0000.0001) %MON dynstat_theta_min            =   2.0000000000000E+01
(PID.TID 0000.0001) %MON dynstat_theta_mean           =   2.0000000000000E+01
(PID.TID 0000.0001) %MON dynstat_theta_sd             =   0.0000000000000E+00
(PID.TID 0000.0001) %MON dynstat_theta_del2           =   0.0000000000000E+00
(PID.TID 0000.0001) %MON dynstat_salt_max             =   3.0000000000000E+01
(PID.TID 0000.0001) %MON dynstat_salt_min             =   3.0000000000000E+01
(PID.TID 0000.0001) %MON dynstat_salt_mean            =   3.0000000000000E+01
(PID.TID 0000.0001) %MON dynstat_salt_sd              =   0.0000000000000E+00
(PID.TID 0000.0001) %MON dynstat_salt_del2            =   0.0000000000000E+00
(PID.TID 0000.0001) %MON trAdv_CFL_u_max              =   1.5991851105159E-08
(PID.TID 0000.0001) %MON trAdv_CFL_v_max              =   1.8511509983685E-08
(PID.TID 0000.0001) %MON trAdv_CFL_w_max              =   2.3362115136827E-14
(PID.TID 0000.0001) %MON advcfl_uvel_max              =   1.6000361743451E-08
(PID.TID 0000.0001) %MON advcfl_vvel_max              =   1.8520932168777E-08
(PID.TID 0000.0001) %MON advcfl_wvel_max              =   4.6929544022056E-14
(PID.TID 0000.0001) %MON advcfl_W_hf_max              =   0.0000000000000E+00
(PID.TID 0000.0001) %MON pe_b_mean                    =   2.3639226333283E-20
(PID.TID 0000.0001) %MON ke_max                       =   2.0490517478307E-16
(PID.TID 0000.0001) %MON ke_mean                      =   1.8582974286041E-17
(PID.TID 0000.0001) %MON ke_vol                       =   7.5645000000000E+15
(PID.TID 0000.0001) %MON vort_r_min                   =  -6.7664854802864E-13
(PID.TID 0000.0001) %MON vort_r_max                   =   4.7613635103528E-13
(PID.TID 0000.0001) %MON vort_a_mean                  =   8.2300000000000E-05
(PID.TID 0000.0001) %MON vort_a_sd                    =   7.1297555115610E-06
(PID.TID 0000.0001) %MON vort_p_mean                  =   8.3303658536585E-05
(PID.TID 0000.0001) %MON vort_p_sd                    =   1.7411470225443E-05
(PID.TID 0000.0001) %MON surfExpan_theta_mean         =   1.3350084658041E-26
(PID.TID 0000.0001) %MON surfExpan_salt_mean          =   2.0026174510787E-26
(PID.TID 0000.0001) // =======================================================
(PID.TID 0000.0001) // End MONITOR dynamic field statistics
(PID.TID 0000.0001) // =======================================================
 cg2d: Sum(rhs),rhsMax =  -2.38520166458674E-03  1.70776422073187E-09
 cg2d: Sum(rhs),rhsMax =  -2.38554140822485E-03  1.70752068832336E-09
 cg2d: Sum(rhs),rhsMax =  -2.38597166630666E-03  1.70721242760588E-09
 cg2d: Sum(rhs),rhsMax =  -2.38649135710516E-03  1.70684031564330E-09
 cg2d: Sum(rhs),rhsMax =  -2.38709937483995E-03  1.70640523485133E-09
 cg2d: Sum(rhs),rhsMax =  -2.38779459761498E-03  1.70590807463128E-09
 cg2d: Sum(rhs),rhsMax =  -2.38857592208358E-03  1.70534973064314E-09
 cg2d: Sum(rhs),rhsMax =  -2.38944220792266E-03  1.70473110486626E-09
 cg2d: Sum(rhs),rhsMax =  -2.39039241664259E-03  1.70405310416600E-09
 cg2d: Sum(rhs),rhsMax =  -2.39142546612152E-03  1.70331664281895E-09
 cg2d: Sum(rhs),rhsMax =  -2.39254027148563E-03  1.70252263933438E-09
 cg2d: Sum(rhs),rhsMax =  -2.39373577589097E-03  1.70167201817436E-09
 cg2d: Sum(rhs),rhsMax =  -2.39501088907645E-03  1.70076570861311E-09
 cg2d: Sum(rhs),rhsMax =  -2.39636457020228E-03  1.69980464519596E-09
 cg2d: Sum(rhs),rhsMax =  -2.39779572997670E-03  1.69878976690707E-09
 cg2d: Sum(rhs),rhsMax =  -2.39930333297202E-03  1.69772201763156E-09
(PID.TID 0000.0001)      cg2d_init_res =   1.85500300220779E-01
(PID.TID 0000.0001)      cg2d_iters(min,last) =      -1     537
(PID.TID 0000.0001)      cg2d_last_res =   8.62308159387739E-08
(PID.TID 0000.0001) // =======================================================
(PID.TID 0000.0001) // Begin MONITOR dynamic field statistics
(PID.TID 0000.0001) // =======================================================
(PID.TID 0000.0001) %MON time_tsnumber                =                  1008
(PID.TID 0000.0001) %MON time_secondsf                =   5.4432000000000E+06
(PID.TID 0000.0001) %MON dynstat_eta_max              =   1.1308772113556E-08
(PID.TID 0000.0001) %MON dynstat_eta_min              =  -1.7965007806306E-08
(PID.TID 0000.0001) %MON dynstat_eta_mean             =   3.9255359602779E-13
(PID.TID 0000.0001) %MON dynstat_eta_sd               =   4.8529071972359E-09
(PID.TID 0000.0001) %MON dynstat_eta_del2             =   8.5272833214633E-14
(PID.TID 0000.0001) %MON dynstat_uvel_max             =   1.4878177010176E-08
(PID.TID 0000.0001) %MON dynstat_uvel_min             =  -1.1997205076329E-08
(PID.TID 0000.0001) %MON dynstat_uvel_mean            =  -3.9814326250089E-13
(PID.TID 0000.0001) %MON dynstat_uvel_sd              =   4.1895782634159E-09
(PID.TID 0000.0001) %MON dynstat_uvel_del2            =   2.3120365690866E-13
(PID.TID 0000.0001) %MON dynstat_vvel_max             =   1.7267522527700E-08
(PID.TID 0000.0001) %MON dynstat_vvel_min             =  -1.3765373433877E-08
(PID.TID 0000.0001) %MON dynstat_vvel_mean            =   7.5138495332465E-14
(PID.TID 0000.0001) %MON dynstat_vvel_sd              =   4.3437849427998E-09
(PID.TID 0000.0001) %MON dynstat_vvel_del2            =   2.5965862692438E-13
(PID.TID 0000.0001) %MON dynstat_wvel_max             =   2.3009729466228E-14
(PID.TID 0000.0001) %MON dynstat_wvel_min             =  -2.0152860288336E-14
(PID.TID 0000.0001) %MON dynstat_wvel_mean            =  -7.3651503995080E-29
(PID.TID 0000.0001) %MON dynstat_wvel_sd              =   9.0422809388216E-15
(PID.TID 0000.0001) %MON dynstat_wvel_del2            =   8.3424369680597E-20
(PID.TID 0000.0001) %MON dynstat_theta_max            =   2.0000000000000E+01
(PID.TID 0000.0001) %MON dynstat_theta_min            =   2.0000000000000E+01
(PID.TID 0000.0001) %MON dynstat_theta_mean           =   2.0000000000000E+01
(PID.TID 0000.0001) %MON dynstat_theta_sd             =   0.0000000000000E+00
(PID.TID 0000.0001) %MON dynstat_theta_del2           =   0.0000000000000E+00
(PID.TID 0000.0001) %MON dynstat_salt_max             =   3.0000000000000E+01
(PID.TID 0000.0001) %MON dynstat_salt_min             =   3.0000000000000E+01
(PID.TID 0000.0001) %MON dynstat_salt_mean            =   3.0000000000000E+01
(PID.TID 0000.0001) %MON dynstat_salt_sd              =   0.0000000000000E+00
(PID.TID 0000.0001) %MON dynstat_salt_del2            =   0.0000000000000E+00
(PID.TID 0000.0001) %MON trAdv_CFL_u_max              =   1.6067027495635E-08
(PID.TID 0000.0001) %MON trAdv_CFL_v_max              =   1.8645895568297E-08
(PID.TID 0000.0001) %MON trAdv_CFL_w_max              =   2.4776582886954E-14
(PID.TID 0000.0001) %MON advcfl_uvel_max              =   1.6068431170990E-08
(PID.TID 0000.0001) %MON advcfl_vvel_max              =   1.8648924329916E-08
(PID.TID 0000.0001) %MON advcfl_wvel_max              =   4.9701015647052E-14
(PID.TID 0000.0001) %MON advcfl_W_hf_max              =   0.0000000000000E+00
(PID.TID 0000.0001) %MON pe_b_mean                    =   2.3103244959120E-20
(PID.TID 0000.0001) %MON ke_max                       =   2.0934272385288E-16
(PID.TID 0000.0001) %MON ke_mean                      =   1.8136490417871E-17
(PID.TID 0000.0001) %MON ke_vol                       =   7.5645000000000E+15
(PID.TID 0000.0001) %MON vort_r_min                   =  -6.7803650926739E-13
(PID.TID 0000.0001) %MON vort_r_max                   =   4.6720458955421E-13
(PID.TID 0000.0001) %MON vort_a_mean                  =   8.2300000000001E-05
(PID.TID 0000.0001) %MON vort_a_sd                    =   7.1297555115460E-06
(PID.TID 0000.0001) %MON vort_p_mean                  =   8.3303658536586E-05
(PID.TID 0000.0001) %MON vort_p_sd                    =   1.7411470225529E-05
(PID.TID 0000.0001) %MON surfExpan_theta_mean         =  -1.4875301597322E-27
(PID.TID 0000.0001) %MON surfExpan_salt_mean          =  -2.1585584057745E-27
(PID.TID 0000.0001) // =======================================================
(PID.TID 0000.0001) // End MONITOR dynamic field statistics
(PID.TID 0000.0001) // =======================================================
 cg2d: Sum(rhs),rhsMax =  -2.40088631567338E-03  1.69660234529993E-09
 cg2d: Sum(rhs),rhsMax =  -2.40254361596968E-03  1.69543170234757E-09
 cg2d: Sum(rhs),rhsMax =  -2.40427418845484E-03  1.69421104486779E-09
 cg2d: Sum(rhs),rhsMax =  -2.40607697331821E-03  1.69294133305542E-09
 cg2d: Sum(rhs),rhsMax =  -2.40795090611288E-03  1.69162353037901E-09
 cg2d: Sum(rhs),rhsMax =  -2.40989485447008E-03  1.69025860334492E-09
 cg2d: Sum(rhs),rhsMax =  -2.41190784834176E-03  1.68884752361220E-09
 cg2d: Sum(rhs),rhsMax =  -2.41398882146612E-03  1.68739126323245E-09
 cg2d: Sum(rhs),rhsMax =  -2.41613670401101E-03  1.68589079843517E-09
 cg2d: Sum(rhs),rhsMax =  -2.41835045591042E-03  1.68434710775053E-09
 cg2d: Sum(rhs),rhsMax =  -2.42062898106902E-03  1.68276117212911E-09
 cg2d: Sum(rhs),rhsMax =  -2.42297121871377E-03  1.68113397470193E-09
 cg2d: Sum(rhs),rhsMax =  -2.42537608100798E-03  1.67946650058067E-09
 cg2d: Sum(rhs),rhsMax =  -2.42784245660113E-03  1.67775973665754E-09
 cg2d: Sum(rhs),rhsMax =  -2.43036924859768E-03  1.67601467140368E-09
 cg2d: Sum(rhs),rhsMax =  -2.43295527653883E-03  1.67423229466737E-09
(PID.TID 0000.0001)      cg2d_init_res =   1.84854714332938E-01
(PID.TID 0000.0001)      cg2d_iters(min,last) =      -1     536
(PID.TID 0000.0001)      cg2d_last_res =   9.83598370905111E-08
(PID.TID 0000.0001) // =======================================================
(PID.TID 0000.0001) // Begin MONITOR dynamic field statistics
(PID.TID 0000.0001) // =======================================================
(PID.TID 0000.0001) %MON time_tsnumber                =                  1024
(PID.TID 0000.0001) %MON time_secondsf                =   5.5296000000000E+06
(PID.TID 0000.0001) %MON dynstat_eta_max              =   1.1176227533163E-08
(PID.TID 0000.0001) %MON dynstat_eta_min              =  -1.7009994490846E-08
(PID.TID 0000.0001) %MON dynstat_eta_mean             =   3.9255167325985E-13
(PID.TID 0000.0001) %MON dynstat_eta_sd               =   4.7952294830241E-09
(PID.TID 0000.0001) %MON dynstat_eta_del2             =   8.3730254910125E-14
(PID.TID 0000.0001) %MON dynstat_uvel_max             =   1.4825243370417E-08
(PID.TID 0000.0001) %MON dynstat_uvel_min             =  -1.1147959155880E-08
(PID.TID 0000.0001) %MON dynstat_uvel_mean            =  -4.1341288696535E-13
(PID.TID 0000.0001) %MON dynstat_uvel_sd              =   4.1326793257516E-09
(PID.TID 0000.0001) %MON dynstat_uvel_del2            =   2.2466520108699E-13
(PID.TID 0000.0001) %MON dynstat_vvel_max             =   1.7294768188735E-08
(PID.TID 0000.0001) %MON dynstat_vvel_min             =  -1.3727720340887E-08
(PID.TID 0000.0001) %MON dynstat_vvel_mean            =   7.9386729853743E-14
(PID.TID 0000.0001) %MON dynstat_vvel_sd              =   4.2978763000647E-09
(PID.TID 0000.0001) %MON dynstat_vvel_del2            =   2.6121263746859E-13
(PID.TID 0000.0001) %MON dynstat_wvel_max             =   2.3845350132223E-14
(PID.TID 0000.0001) %MON dynstat_wvel_min             =  -2.0845384991475E-14
(PID.TID 0000.0001) %MON dynstat_wvel_mean            =   5.9134391731066E-28
(PID.TID 0000.0001) %MON dynstat_wvel_sd              =   9.0463651419165E-15
(PID.TID 0000.0001) %MON dynstat_wvel_del2            =   8.2066580091454E-20
(PID.TID 0000.0001) %MON dynstat_theta_max            =   2.0000000000000E+01
(PID.TID 0000.0001) %MON dynstat_theta_min            =   2.0000000000000E+01
(PID.TID 0000.0001) %MON dynstat_theta_mean           =   2.0000000000000E+01
(PID.TID 0000.0001) %MON dynstat_theta_sd             =   0.0000000000000E+00
(PID.TID 0000.0001) %MON dynstat_theta_del2           =   0.0000000000000E+00
(PID.TID 0000.0001) %MON dynstat_salt_max             =   3.0000000000000E+01
(PID.TID 0000.0001) %MON dynstat_salt_min             =   3.0000000000000E+01
(PID.TID 0000.0001) %MON dynstat_salt_mean            =   3.0000000000000E+01
(PID.TID 0000.0001) %MON dynstat_salt_sd              =   0.0000000000000E+00
(PID.TID 0000.0001) %MON dynstat_salt_del2            =   0.0000000000000E+00
(PID.TID 0000.0001) %MON trAdv_CFL_u_max              =   1.6019321011747E-08
(PID.TID 0000.0001) %MON trAdv_CFL_v_max              =   1.8682499736300E-08
(PID.TID 0000.0001) %MON trAdv_CFL_w_max              =   2.5710584618910E-14
(PID.TID 0000.0001) %MON advcfl_uvel_max              =   1.6011262840050E-08
(PID.TID 0000.0001) %MON advcfl_vvel_max              =   1.8678349643833E-08
(PID.TID 0000.0001) %MON advcfl_wvel_max              =   5.1505956285602E-14
(PID.TID 0000.0001) %MON advcfl_W_hf_max              =   0.0000000000000E+00
(PID.TID 0000.0001) %MON pe_b_mean                    =   2.2557335655930E-20
(PID.TID 0000.0001) %MON ke_max                       =   2.1225517889816E-16
(PID.TID 0000.0001) %MON ke_mean                      =   1.7703131957225E-17
(PID.TID 0000.0001) %MON ke_vol                       =   7.5645000000000E+15
(PID.TID 0000.0001) %MON vort_r_min                   =  -6.7323930169011E-13
(PID.TID 0000.0001) %MON vort_r_max                   =   4.6174484138012E-13
(PID.TID 0000.0001) %MON vort_a_mean                  =   8.2300000000001E-05
(PID.TID 0000.0001) %MON vort_a_sd                    =   7.1297555115404E-06
(PID.TID 0000.0001) %MON vort_p_mean                  =   8.3303658536587E-05
(PID.TID 0000.0001) %MON vort_p_sd                    =   1.7411470225606E-05
(PID.TID 0000.0001) %MON surfExpan_theta_mean         =   1.1724456642008E-26
(PID.TID 0000.0001) %MON surfExpan_salt_mean          =   1.7511191573445E-26
(PID.TID 0000.0001) // =======================================================
(PID.TID 0000.0001) // End MONITOR dynamic field statistics
(PID.TID 0000.0001) // =======================================================
 cg2d: Sum(rhs),rhsMax =  -2.43559931316087E-03  1.67241359747213E-09
 cg2d: Sum(rhs),rhsMax =  -2.43829990440330E-03  1.67055957181485E-09
 cg2d: Sum(rhs),rhsMax =  -2.44105485259076E-03  1.66867121046342E-09
 cg2d: Sum(rhs),rhsMax =  -2.44000644581896E-03  1.66674950893052E-09
 cg2d: Sum(rhs),rhsMax =  -2.44287863043387E-03  1.66479545364346E-09
 cg2d: Sum(rhs),rhsMax =  -2.44579872388317E-03  1.66281004744747E-09
 cg2d: Sum(rhs),rhsMax =  -2.44876939849293E-03  1.66079427934593E-09
 cg2d: Sum(rhs),rhsMax =  -2.45179020250887E-03  1.65874914384641E-09
 cg2d: Sum(rhs),rhsMax =  -2.45486022832706E-03  1.65667563420091E-09
 cg2d: Sum(rhs),rhsMax =  -2.45794312079864E-03  1.65459851531176E-09
 cg2d: Sum(rhs),rhsMax =  -2.46098763089053E-03  1.65255230184709E-09
 cg2d: Sum(rhs),rhsMax =  -2.46407686690516E-03  1.65048112974860E-09
 cg2d: Sum(rhs),rhsMax =  -2.46720970729775E-03  1.64838596966477E-09
 cg2d: Sum(rhs),rhsMax =  -2.47038501072086E-03  1.64626779029636E-09
 cg2d: Sum(rhs),rhsMax =  -2.47360164415905E-03  1.64412755929644E-09
 cg2d: Sum(rhs),rhsMax =  -2.47685844109392E-03  1.64196624194747E-09
(PID.TID 0000.0001)      cg2d_init_res =   1.85263775183902E-01
(PID.TID 0000.0001)      cg2d_iters(min,last) =      -1     537
(PID.TID 0000.0001)      cg2d_last_res =   9.70412173448269E-08
(PID.TID 0000.0001) // =======================================================
(PID.TID 0000.0001) // Begin MONITOR dynamic field statistics
(PID.TID 0000.0001) // =======================================================
(PID.TID 0000.0001) %MON time_tsnumber                =                  1040
(PID.TID 0000.0001) %MON time_secondsf                =   5.6160000000000E+06
(PID.TID 0000.0001) %MON dynstat_eta_max              =   1.2306561301588E-08
(PID.TID 0000.0001) %MON dynstat_eta_min              =  -1.5934452431039E-08
(PID.TID 0000.0001) %MON dynstat_eta_mean             =   3.9193391699686E-13
(PID.TID 0000.0001) %MON dynstat_eta_sd               =   4.7375193806650E-09
(PID.TID 0000.0001) %MON dynstat_eta_del2             =   8.2292136262099E-14
(PID.TID 0000.0001) %MON dynstat_uvel_max             =   1.4650125378392E-08
(PID.TID 0000.0001) %MON dynstat_uvel_min             =  -1.0321378531424E-08
(PID.TID 0000.0001) %MON dynstat_uvel_mean            =  -4.0731903337901E-13
(PID.TID 0000.0001) %MON dynstat_uvel_sd              =   4.0700648394030E-09
(PID.TID 0000.0001) %MON dynstat_uvel_del2            =   2.1812942661780E-13
(PID.TID 0000.0001) %MON dynstat_vvel_max             =   1.7236322765369E-08
(PID.TID 0000.0001) %MON dynstat_vvel_min             =  -1.3614504450237E-08
(PID.TID 0000.0001) %MON dynstat_vvel_mean            =   8.3120024299355E-14
(PID.TID 0000.0001) %MON dynstat_vvel_sd              =   4.2590249149800E-09
(PID.TID 0000.0001) %MON dynstat_vvel_del2            =   2.6240439397674E-13
(PID.TID 0000.0001) %MON dynstat_wvel_max             =   2.4215933334126E-14
(PID.TID 0000.0001) %MON dynstat_wvel_min             =  -2.1263912801661E-14
(PID.TID 0000.0001) %MON dynstat_wvel_mean            =  -1.4766953267858E-28
(PID.TID 0000.0001) %MON dynstat_wvel_sd              =   9.0311589362177E-15
(PID.TID 0000.0001) %MON dynstat_wvel_del2            =   8.0600359088217E-20
(PID.TID 0000.0001) %MON dynstat_theta_max            =   2.0000000000000E+01
(PID.TID 0000.0001) %MON dynstat_theta_min            =   2.0000000000000E+01
(PID.TID 0000.0001) %MON dynstat_theta_mean           =   2.0000000000000E+01
(PID.TID 0000.0001) %MON dynstat_theta_sd             =   0.0000000000000E+00
(PID.TID 0000.0001) %MON dynstat_theta_del2           =   0.0000000000000E+00
(PID.TID 0000.0001) %MON dynstat_salt_max             =   3.0000000000000E+01
(PID.TID 0000.0001) %MON dynstat_salt_min             =   3.0000000000000E+01
(PID.TID 0000.0001) %MON dynstat_salt_mean            =   3.0000000000000E+01
(PID.TID 0000.0001) %MON dynstat_salt_sd              =   0.0000000000000E+00
(PID.TID 0000.0001) %MON dynstat_salt_del2            =   0.0000000000000E+00
(PID.TID 0000.0001) %MON trAdv_CFL_u_max              =   1.5838322791194E-08
(PID.TID 0000.0001) %MON trAdv_CFL_v_max              =   1.8620485886532E-08
(PID.TID 0000.0001) %MON trAdv_CFL_w_max              =   2.6142133820084E-14
(PID.TID 0000.0001) %MON advcfl_uvel_max              =   1.5822135408663E-08
(PID.TID 0000.0001) %MON advcfl_vvel_max              =   1.8615228586599E-08
(PID.TID 0000.0001) %MON advcfl_wvel_max              =   5.2306416001713E-14
(PID.TID 0000.0001) %MON advcfl_W_hf_max              =   0.0000000000000E+00
(PID.TID 0000.0001) %MON pe_b_mean                    =   2.2017652325109E-20
(PID.TID 0000.0001) %MON ke_max                       =   2.1327540728930E-16
(PID.TID 0000.0001) %MON ke_mean                      =   1.7281822546880E-17
(PID.TID 0000.0001) %MON ke_vol                       =   7.5645000000000E+15
(PID.TID 0000.0001) %MON vort_r_min                   =  -6.6372839427676E-13
(PID.TID 0000.0001) %MON vort_r_max                   =   5.0759391134920E-13
(PID.TID 0000.0001) %MON vort_a_mean                  =   8.2300000000001E-05
(PID.TID 0000.0001) %MON vort_a_sd                    =   7.1297555115540E-06
(PID.TID 0000.0001) %MON vort_p_mean                  =   8.3303658536586E-05
(PID.TID 0000.0001) %MON vort_p_sd                    =   1.7411470225675E-05
(PID.TID 0000.0001) %MON surfExpan_theta_mean         =  -3.1040294697927E-27
(PID.TID 0000.0001) %MON surfExpan_salt_mean          =  -4.5842594361220E-27
(PID.TID 0000.0001) // =======================================================
(PID.TID 0000.0001) // End MONITOR dynamic field statistics
(PID.TID 0000.0001) // =======================================================
 cg2d: Sum(rhs),rhsMax =  -2.48015423671310E-03  1.63978480213533E-09
 cg2d: Sum(rhs),rhsMax =  -2.48348785341976E-03  1.63758420072715E-09
 cg2d: Sum(rhs),rhsMax =  -2.48685801680039E-03  1.63536539806995E-09
 cg2d: Sum(rhs),rhsMax =  -2.49026362094000E-03  1.63312934902158E-09
 cg2d: Sum(rhs),rhsMax =  -2.49370347243534E-03  1.63087700778381E-09
 cg2d: Sum(rhs),rhsMax =  -2.49717636387262E-03  1.62860932516126E-09
 cg2d: Sum(rhs),rhsMax =  -2.50068106144578E-03  1.62632724868540E-09
 cg2d: Sum(rhs),rhsMax =  -2.50421627609705E-03  1.62403172278664E-09
 cg2d: Sum(rhs),rhsMax =  -2.50778083183653E-03  1.62172368760126E-09
 cg2d: Sum(rhs),rhsMax =  -2.51137350419391E-03  1.61940408084490E-09
 cg2d: Sum(rhs),rhsMax =  -2.51499302978978E-03  1.61707383525305E-09
 cg2d: Sum(rhs),rhsMax =  -2.51863815092734E-03  1.61473388004278E-09
 cg2d: Sum(rhs),rhsMax =  -2.52230753875150E-03  1.61238514017616E-09
 cg2d: Sum(rhs),rhsMax =  -2.52599996626641E-03  1.61002853557485E-09
 cg2d: Sum(rhs),rhsMax =  -2.52971416190932E-03  1.60766498181848E-09
 cg2d: Sum(rhs),rhsMax =  -2.53344882829446E-03  1.60529539000409E-09
(PID.TID 0000.0001)      cg2d_init_res =   1.86389576359136E-01
(PID.TID 0000.0001)      cg2d_iters(min,last) =      -1     540
(PID.TID 0000.0001)      cg2d_last_res =   9.29591651088705E-08
(PID.TID 0000.0001) // =======================================================
(PID.TID 0000.0001) // Begin MONITOR dynamic field statistics
(PID.TID 0000.0001) // =======================================================
(PID.TID 0000.0001) %MON time_tsnumber                =                  1056
(PID.TID 0000.0001) %MON time_secondsf                =   5.7024000000000E+06
(PID.TID 0000.0001) %MON dynstat_eta_max              =   1.3425209202471E-08
(PID.TID 0000.0001) %MON dynstat_eta_min              =  -1.4753633128624E-08
(PID.TID 0000.0001) %MON dynstat_eta_mean             =   3.9193539634630E-13
(PID.TID 0000.0001) %MON dynstat_eta_sd               =   4.6808161273067E-09
(PID.TID 0000.0001) %MON dynstat_eta_del2             =   8.0945096606123E-14
(PID.TID 0000.0001) %MON dynstat_uvel_max             =   1.4348427511651E-08
(PID.TID 0000.0001) %MON dynstat_uvel_min             =  -1.0112417096650E-08
(PID.TID 0000.0001) %MON dynstat_uvel_mean            =  -3.8023905979855E-13
(PID.TID 0000.0001) %MON dynstat_uvel_sd              =   4.0020202085910E-09
(PID.TID 0000.0001) %MON dynstat_uvel_del2            =   2.1194002165968E-13
(PID.TID 0000.0001) %MON dynstat_vvel_max             =   1.7077836276680E-08
(PID.TID 0000.0001) %MON dynstat_vvel_min             =  -1.3450350104633E-08
(PID.TID 0000.0001) %MON dynstat_vvel_mean            =   8.6045195715527E-14
(PID.TID 0000.0001) %MON dynstat_vvel_sd              =   4.2267063160610E-09
(PID.TID 0000.0001) %MON dynstat_vvel_del2            =   2.6285666382525E-13
(PID.TID 0000.0001) %MON dynstat_wvel_max             =   2.4115174044326E-14
(PID.TID 0000.0001) %MON dynstat_wvel_min             =  -2.1377075177798E-14
(PID.TID 0000.0001) %MON dynstat_wvel_mean            =   4.3566445947291E-28
(PID.TID 0000.0001) %MON dynstat_wvel_sd              =   8.9969982276302E-15
(PID.TID 0000.0001) %MON dynstat_wvel_del2            =   7.9186768056678E-20
(PID.TID 0000.0001) %MON dynstat_theta_max            =   2.0000000000000E+01
(PID.TID 0000.0001) %MON dynstat_theta_min            =   2.0000000000000E+01
(PID.TID 0000.0001) %MON dynstat_theta_mean           =   2.0000000000000E+01
(PID.TID 0000.0001) %MON dynstat_theta_sd             =   0.0000000000000E+00
(PID.TID 0000.0001) %MON dynstat_theta_del2           =   0.0000000000000E+00
(PID.TID 0000.0001) %MON dynstat_salt_max             =   3.0000000000000E+01
(PID.TID 0000.0001) %MON dynstat_salt_min             =   3.0000000000000E+01
(PID.TID 0000.0001) %MON dynstat_salt_mean            =   3.0000000000000E+01
(PID.TID 0000.0001) %MON dynstat_salt_sd              =   0.0000000000000E+00
(PID.TID 0000.0001) %MON dynstat_salt_del2            =   0.0000000000000E+00
(PID.TID 0000.0001) %MON trAdv_CFL_u_max              =   1.5520474035598E-08
(PID.TID 0000.0001) %MON trAdv_CFL_v_max              =   1.8457390653486E-08
(PID.TID 0000.0001) %MON trAdv_CFL_w_max              =   2.6064289957528E-14
(PID.TID 0000.0001) %MON advcfl_uvel_max              =   1.5496301712583E-08
(PID.TID 0000.0001) %MON advcfl_vvel_max              =   1.8444063178815E-08
(PID.TID 0000.0001) %MON advcfl_wvel_max              =   5.2088775935744E-14
(PID.TID 0000.0001) %MON advcfl_W_hf_max              =   0.0000000000000E+00
(PID.TID 0000.0001) %MON pe_b_mean                    =   2.1493749015614E-20
(PID.TID 0000.0001) %MON ke_max                       =   2.1203401673412E-16
(PID.TID 0000.0001) %MON ke_mean                      =   1.6871741839686E-17
(PID.TID 0000.0001) %MON ke_vol                       =   7.5645000000000E+15
(PID.TID 0000.0001) %MON vort_r_min                   =  -6.5136913035411E-13
(PID.TID 0000.0001) %MON vort_r_max                   =   5.5350540528711E-13
(PID.TID 0000.0001) %MON vort_a_mean                  =   8.2300000000000E-05
(PID.TID 0000.0001) %MON vort_a_sd                    =   7.1297555115574E-06
(PID.TID 0000.0001) %MON vort_p_mean                  =   8.3303658536586E-05
(PID.TID 0000.0001) %MON vort_p_sd                    =   1.7411470225727E-05
(PID.TID 0000.0001) %MON surfExpan_theta_mean         =   8.4992279143471E-27
(PID.TID 0000.0001) %MON surfExpan_salt_mean          =   1.2661288819573E-26
(PID.TID 0000.0001) // =======================================================
(PID.TID 0000.0001) // End MONITOR dynamic field statistics
(PID.TID 0000.0001) // =======================================================
 cg2d: Sum(rhs),rhsMax =  -2.53720266126907E-03  1.60292066603716E-09
 cg2d: Sum(rhs),rhsMax =  -2.54097434853042E-03  1.60054171061836E-09
 cg2d: Sum(rhs),rhsMax =  -2.54476258151576E-03  1.59815941911421E-09
 cg2d: Sum(rhs),rhsMax =  -2.54856603623095E-03  1.59577468137566E-09
 cg2d: Sum(rhs),rhsMax =  -2.55238334090517E-03  1.59338838066865E-09
 cg2d: Sum(rhs),rhsMax =  -2.55621318829014E-03  1.59100139696121E-09
 cg2d: Sum(rhs),rhsMax =  -2.56005424000168E-03  1.58861460191386E-09
 cg2d: Sum(rhs),rhsMax =  -2.56390515163850E-03  1.58622886130181E-09
 cg2d: Sum(rhs),rhsMax =  -2.56776441099500E-03  1.58384503666344E-09
 cg2d: Sum(rhs),rhsMax =  -2.57163081002937E-03  1.58146397669258E-09
 cg2d: Sum(rhs),rhsMax =  -2.57550288571626E-03  1.57908653069733E-09
 cg2d: Sum(rhs),rhsMax =  -2.57937931388229E-03  1.57671353716040E-09
 cg2d: Sum(rhs),rhsMax =  -2.58325875156232E-03  1.57434582978198E-09
 cg2d: Sum(rhs),rhsMax =  -2.58713981442659E-03  1.57198423363740E-09
 cg2d: Sum(rhs),rhsMax =  -2.59102111890746E-03  1.56962956620943E-09
 cg2d: Sum(rhs),rhsMax =  -2.59490127223929E-03  1.56728263822249E-09
(PID.TID 0000.0001)      cg2d_init_res =   1.88067917386439E-01
(PID.TID 0000.0001)      cg2d_iters(min,last) =      -1     547
(PID.TID 0000.0001)      cg2d_last_res =   9.50243099402035E-08
(PID.TID 0000.0001) // =======================================================
(PID.TID 0000.0001) // Begin MONITOR dynamic field statistics
(PID.TID 0000.0001) // =======================================================
(PID.TID 0000.0001) %MON time_tsnumber                =                  1072
(PID.TID 0000.0001) %MON time_secondsf                =   5.7888000000000E+06
(PID.TID 0000.0001) %MON dynstat_eta_max              =   1.4400861455352E-08
(PID.TID 0000.0001) %MON dynstat_eta_min              =  -1.3507991642407E-08
(PID.TID 0000.0001) %MON dynstat_eta_mean             =   3.9193631139801E-13
(PID.TID 0000.0001) %MON dynstat_eta_sd               =   4.6254824683004E-09
(PID.TID 0000.0001) %MON dynstat_eta_del2             =   7.9673585119594E-14
(PID.TID 0000.0001) %MON dynstat_uvel_max             =   1.4113673683060E-08
(PID.TID 0000.0001) %MON dynstat_uvel_min             =  -1.0214218860181E-08
(PID.TID 0000.0001) %MON dynstat_uvel_mean            =  -3.3366929171676E-13
(PID.TID 0000.0001) %MON dynstat_uvel_sd              =   3.9303299359666E-09
(PID.TID 0000.0001) %MON dynstat_uvel_del2            =   2.0640814117342E-13
(PID.TID 0000.0001) %MON dynstat_vvel_max             =   1.6815133356151E-08
(PID.TID 0000.0001) %MON dynstat_vvel_min             =  -1.3217442705786E-08
(PID.TID 0000.0001) %MON dynstat_vvel_mean            =   8.7883566646173E-14
(PID.TID 0000.0001) %MON dynstat_vvel_sd              =   4.1990018866102E-09
(PID.TID 0000.0001) %MON dynstat_vvel_del2            =   2.6235127558096E-13
(PID.TID 0000.0001) %MON dynstat_wvel_max             =   2.3561759674440E-14
(PID.TID 0000.0001) %MON dynstat_wvel_min             =  -2.1213674776810E-14
(PID.TID 0000.0001) %MON dynstat_wvel_mean            =  -1.9220012882392E-28
(PID.TID 0000.0001) %MON dynstat_wvel_sd              =   8.9474509078443E-15
(PID.TID 0000.0001) %MON dynstat_wvel_del2            =   7.7860793586490E-20
(PID.TID 0000.0001) %MON dynstat_theta_max            =   2.0000000000000E+01
(PID.TID 0000.0001) %MON dynstat_theta_min            =   2.0000000000000E+01
(PID.TID 0000.0001) %MON dynstat_theta_mean           =   2.0000000000000E+01
(PID.TID 0000.0001) %MON dynstat_theta_sd             =   0.0000000000000E+00
(PID.TID 0000.0001) %MON dynstat_theta_del2           =   0.0000000000000E+00
(PID.TID 0000.0001) %MON dynstat_salt_max             =   3.0000000000000E+01
(PID.TID 0000.0001) %MON dynstat_salt_min             =   3.0000000000000E+01
(PID.TID 0000.0001) %MON dynstat_salt_mean            =   3.0000000000000E+01
(PID.TID 0000.0001) %MON dynstat_salt_sd              =   0.0000000000000E+00
(PID.TID 0000.0001) %MON dynstat_salt_del2            =   0.0000000000000E+00
(PID.TID 0000.0001) %MON trAdv_CFL_u_max              =   1.5249630501690E-08
(PID.TID 0000.0001) %MON trAdv_CFL_v_max              =   1.8181720791805E-08
(PID.TID 0000.0001) %MON trAdv_CFL_w_max              =   2.5498703970683E-14
(PID.TID 0000.0001) %MON advcfl_uvel_max              =   1.5242767577705E-08
(PID.TID 0000.0001) %MON advcfl_vvel_max              =   1.8160344024643E-08
(PID.TID 0000.0001) %MON advcfl_wvel_max              =   5.0893400896790E-14
(PID.TID 0000.0001) %MON advcfl_W_hf_max              =   0.0000000000000E+00
(PID.TID 0000.0001) %MON pe_b_mean                    =   2.0988581542024E-20
(PID.TID 0000.0001) %MON ke_max                       =   2.0840350679828E-16
(PID.TID 0000.0001) %MON ke_mean                      =   1.6472321220022E-17
(PID.TID 0000.0001) %MON ke_vol                       =   7.5645000000000E+15
(PID.TID 0000.0001) %MON vort_r_min                   =  -6.3763851378502E-13
(PID.TID 0000.0001) %MON vort_r_max                   =   5.9691717095789E-13
(PID.TID 0000.0001) %MON vort_a_mean                  =   8.2299999999999E-05
(PID.TID 0000.0001) %MON vort_a_sd                    =   7.1297555115679E-06
(PID.TID 0000.0001) %MON vort_p_mean                  =   8.3303658536584E-05
(PID.TID 0000.0001) %MON vort_p_sd                    =   1.7411470225766E-05
(PID.TID 0000.0001) %MON surfExpan_theta_mean         =  -4.0229703578320E-27
(PID.TID 0000.0001) %MON surfExpan_salt_mean          =  -5.9708090925389E-27
(PID.TID 0000.0001) // =======================================================
(PID.TID 0000.0001) // End MONITOR dynamic field statistics
(PID.TID 0000.0001) // =======================================================
 cg2d: Sum(rhs),rhsMax =  -2.59877887756049E-03  1.56494425214760E-09
 cg2d: Sum(rhs),rhsMax =  -2.60265253448307E-03  1.56261520316037E-09
 cg2d: Sum(rhs),rhsMax =  -2.60652084056719E-03  1.56029627793299E-09
 cg2d: Sum(rhs),rhsMax =  -2.61038239276328E-03  1.55798825554579E-09
 cg2d: Sum(rhs),rhsMax =  -2.61423578064424E-03  1.55569190626324E-09
 cg2d: Sum(rhs),rhsMax =  -2.61807960790143E-03  1.55340799247215E-09
 cg2d: Sum(rhs),rhsMax =  -2.62191245559834E-03  1.55113726744863E-09
 cg2d: Sum(rhs),rhsMax =  -2.62573289118676E-03  1.54888047614458E-09
 cg2d: Sum(rhs),rhsMax =  -2.62953952569263E-03  1.54663835443359E-09
 cg2d: Sum(rhs),rhsMax =  -2.63333096838172E-03  1.54441162966208E-09
 cg2d: Sum(rhs),rhsMax =  -2.63710579976006E-03  1.54220101946504E-09
 cg2d: Sum(rhs),rhsMax =  -2.63510427837034E-03  1.54337251914736E-09
 cg2d: Sum(rhs),rhsMax =  -2.62649711916403E-03  1.54843032699662E-09
 cg2d: Sum(rhs),rhsMax =  -2.61808137865461E-03  1.55340781430124E-09
 cg2d: Sum(rhs),rhsMax =  -2.60985560234042E-03  1.55830396524758E-09
 cg2d: Sum(rhs),rhsMax =  -2.60181839837674E-03  1.56311778099529E-09
(PID.TID 0000.0001)      cg2d_init_res =   1.86214757795894E-01
(PID.TID 0000.0001)      cg2d_iters(min,last) =      -1     548
(PID.TID 0000.0001)      cg2d_last_res =   9.43584011243560E-08
(PID.TID 0000.0001) // =======================================================
(PID.TID 0000.0001) // Begin MONITOR dynamic field statistics
(PID.TID 0000.0001) // =======================================================
(PID.TID 0000.0001) %MON time_tsnumber                =                  1088
(PID.TID 0000.0001) %MON time_secondsf                =   5.8752000000000E+06
(PID.TID 0000.0001) %MON dynstat_eta_max              =   1.5200216613418E-08
(PID.TID 0000.0001) %MON dynstat_eta_min              =  -1.2231596155839E-08
(PID.TID 0000.0001) %MON dynstat_eta_mean             =   3.9193677379615E-13
(PID.TID 0000.0001) %MON dynstat_eta_sd               =   4.5713370910519E-09
(PID.TID 0000.0001) %MON dynstat_eta_del2             =   7.8461075113344E-14
(PID.TID 0000.0001) %MON dynstat_uvel_max             =   1.3991533019009E-08
(PID.TID 0000.0001) %MON dynstat_uvel_min             =  -1.0308421559829E-08
(PID.TID 0000.0001) %MON dynstat_uvel_mean            =  -2.7013859533448E-13
(PID.TID 0000.0001) %MON dynstat_uvel_sd              =   3.8579710683208E-09
(PID.TID 0000.0001) %MON dynstat_uvel_del2            =   2.0173856064427E-13
(PID.TID 0000.0001) %MON dynstat_vvel_max             =   1.6450504707346E-08
(PID.TID 0000.0001) %MON dynstat_vvel_min             =  -1.2948999694557E-08
(PID.TID 0000.0001) %MON dynstat_vvel_mean            =   8.8388531801490E-14
(PID.TID 0000.0001) %MON dynstat_vvel_sd              =   4.1729830018924E-09
(PID.TID 0000.0001) %MON dynstat_vvel_del2            =   2.6085268919752E-13
(PID.TID 0000.0001) %MON dynstat_wvel_max             =   2.2581384937492E-14
(PID.TID 0000.0001) %MON dynstat_wvel_min             =  -2.0903921830184E-14
(PID.TID 0000.0001) %MON dynstat_wvel_mean            =  -1.1341619420042E-27
(PID.TID 0000.0001) %MON dynstat_wvel_sd              =   8.8882561756979E-15
(PID.TID 0000.0001) %MON dynstat_wvel_del2            =   7.6682252090608E-20
(PID.TID 0000.0001) %MON dynstat_theta_max            =   2.0000000000000E+01
(PID.TID 0000.0001) %MON dynstat_theta_min            =   2.0000000000000E+01
(PID.TID 0000.0001) %MON dynstat_theta_mean           =   2.0000000000000E+01
(PID.TID 0000.0001) %MON dynstat_theta_sd             =   0.0000000000000E+00
(PID.TID 0000.0001) %MON dynstat_theta_del2           =   0.0000000000000E+00
(PID.TID 0000.0001) %MON dynstat_salt_max             =   3.0000000000000E+01
(PID.TID 0000.0001) %MON dynstat_salt_min             =   3.0000000000000E+01
(PID.TID 0000.0001) %MON dynstat_salt_mean            =   3.0000000000000E+01
(PID.TID 0000.0001) %MON dynstat_salt_sd              =   0.0000000000000E+00
(PID.TID 0000.0001) %MON dynstat_salt_del2            =   0.0000000000000E+00
(PID.TID 0000.0001) %MON trAdv_CFL_u_max              =   1.5120450505987E-08
(PID.TID 0000.0001) %MON trAdv_CFL_v_max              =   1.7795651838756E-08
(PID.TID 0000.0001) %MON trAdv_CFL_w_max              =   2.4467559930930E-14
(PID.TID 0000.0001) %MON advcfl_uvel_max              =   1.5110855660529E-08
(PID.TID 0000.0001) %MON advcfl_vvel_max              =   1.7766545083934E-08
(PID.TID 0000.0001) %MON advcfl_wvel_max              =   4.8775791464983E-14
(PID.TID 0000.0001) %MON advcfl_W_hf_max              =   0.0000000000000E+00
(PID.TID 0000.0001) %MON pe_b_mean                    =   2.0500077617522E-20
(PID.TID 0000.0001) %MON ke_max                       =   2.0239889331118E-16
(PID.TID 0000.0001) %MON ke_mean                      =   1.6083218200860E-17
(PID.TID 0000.0001) %MON ke_vol                       =   7.5645000000000E+15
(PID.TID 0000.0001) %MON vort_r_min                   =  -6.2374235437532E-13
(PID.TID 0000.0001) %MON vort_r_max                   =   6.3555556594477E-13
(PID.TID 0000.0001) %MON vort_a_mean                  =   8.2299999999999E-05
(PID.TID 0000.0001) %MON vort_a_sd                    =   7.1297555115645E-06
(PID.TID 0000.0001) %MON vort_p_mean                  =   8.3303658536585E-05
(PID.TID 0000.0001) %MON vort_p_sd                    =   1.7411470225788E-05
(PID.TID 0000.0001) %MON surfExpan_theta_mean         =  -2.2941374252121E-26
(PID.TID 0000.0001) %MON surfExpan_salt_mean          =  -3.4450258202686E-26
(PID.TID 0000.0001) // =======================================================
(PID.TID 0000.0001) // End MONITOR dynamic field statistics
(PID.TID 0000.0001) // =======================================================
 cg2d: Sum(rhs),rhsMax =  -2.59396838452011E-03  1.56784827987443E-09
 cg2d: Sum(rhs),rhsMax =  -2.58630420983933E-03  1.57249449757790E-09
 cg2d: Sum(rhs),rhsMax =  -2.57869326950362E-03  1.57713577130991E-09
 cg2d: Sum(rhs),rhsMax =  -2.57111810159269E-03  1.58178252024842E-09
 cg2d: Sum(rhs),rhsMax =  -2.56372710409983E-03  1.58634275930419E-09
 cg2d: Sum(rhs),rhsMax =  -2.55651894161023E-03  1.59081559410471E-09
 cg2d: Sum(rhs),rhsMax =  -2.54949228034537E-03  1.59520014849583E-09
 cg2d: Sum(rhs),rhsMax =  -2.54264583074578E-03  1.59949556471241E-09
 cg2d: Sum(rhs),rhsMax =  -2.53597832972269E-03  1.60370100354480E-09
 cg2d: Sum(rhs),rhsMax =  -2.52948854813870E-03  1.60781564450171E-09
 cg2d: Sum(rhs),rhsMax =  -2.52317527771593E-03  1.61183868596876E-09
 cg2d: Sum(rhs),rhsMax =  -2.51703734646639E-03  1.61576934536383E-09
 cg2d: Sum(rhs),rhsMax =  -2.51107361794183E-03  1.61960685928747E-09
 cg2d: Sum(rhs),rhsMax =  -2.50528297411331E-03  1.62335048367018E-09
 cg2d: Sum(rhs),rhsMax =  -2.49966432340659E-03  1.62699949391511E-09
 cg2d: Sum(rhs),rhsMax =  -2.49421661592581E-03  1.63055318503686E-09
(PID.TID 0000.0001)      cg2d_init_res =   1.76853781333927E-01
(PID.TID 0000.0001)      cg2d_iters(min,last) =      -1     548
(PID.TID 0000.0001)      cg2d_last_res =   9.75138970703904E-08
(PID.TID 0000.0001) // =======================================================
(PID.TID 0000.0001) // Begin MONITOR dynamic field statistics
(PID.TID 0000.0001) // =======================================================
(PID.TID 0000.0001) %MON time_tsnumber                =                  1104
(PID.TID 0000.0001) %MON time_secondsf                =   5.9616000000000E+06
(PID.TID 0000.0001) %MON dynstat_eta_max              =   1.5796258465681E-08
(PID.TID 0000.0001) %MON dynstat_eta_min              =  -1.0956281602117E-08
(PID.TID 0000.0001) %MON dynstat_eta_mean             =   3.9193718355700E-13
(PID.TID 0000.0001) %MON dynstat_eta_sd               =   4.5179119972013E-09
(PID.TID 0000.0001) %MON dynstat_eta_del2             =   7.7291722408517E-14
(PID.TID 0000.0001) %MON dynstat_uvel_max             =   1.3830352949066E-08
(PID.TID 0000.0001) %MON dynstat_uvel_min             =  -1.0404782777797E-08
(PID.TID 0000.0001) %MON dynstat_uvel_mean            =  -1.9306630527050E-13
(PID.TID 0000.0001) %MON dynstat_uvel_sd              =   3.7885389048965E-09
(PID.TID 0000.0001) %MON dynstat_uvel_del2            =   1.9797480167983E-13
(PID.TID 0000.0001) %MON dynstat_vvel_max             =   1.5990334730781E-08
(PID.TID 0000.0001) %MON dynstat_vvel_min             =  -1.2669935005369E-08
(PID.TID 0000.0001) %MON dynstat_vvel_mean            =   8.7361162127626E-14
(PID.TID 0000.0001) %MON dynstat_vvel_sd              =   4.1453235330364E-09
(PID.TID 0000.0001) %MON dynstat_vvel_del2            =   2.5850823728229E-13
(PID.TID 0000.0001) %MON dynstat_wvel_max             =   2.1215168166666E-14
(PID.TID 0000.0001) %MON dynstat_wvel_min             =  -2.0393157431631E-14
(PID.TID 0000.0001) %MON dynstat_wvel_mean            =   1.1676961740214E-27
(PID.TID 0000.0001) %MON dynstat_wvel_sd              =   8.8258916042699E-15
(PID.TID 0000.0001) %MON dynstat_wvel_del2            =   7.5680125150124E-20
(PID.TID 0000.0001) %MON dynstat_theta_max            =   2.0000000000000E+01
(PID.TID 0000.0001) %MON dynstat_theta_min            =   2.0000000000000E+01
(PID.TID 0000.0001) %MON dynstat_theta_mean           =   2.0000000000000E+01
(PID.TID 0000.0001) %MON dynstat_theta_sd             =   0.0000000000000E+00
(PID.TID 0000.0001) %MON dynstat_theta_del2           =   0.0000000000000E+00
(PID.TID 0000.0001) %MON dynstat_salt_max             =   3.0000000000000E+01
(PID.TID 0000.0001) %MON dynstat_salt_min             =   3.0000000000000E+01
(PID.TID 0000.0001) %MON dynstat_salt_mean            =   3.0000000000000E+01
(PID.TID 0000.0001) %MON dynstat_salt_sd              =   0.0000000000000E+00
(PID.TID 0000.0001) %MON dynstat_salt_del2            =   0.0000000000000E+00
(PID.TID 0000.0001) %MON trAdv_CFL_u_max              =   1.4949269862241E-08
(PID.TID 0000.0001) %MON trAdv_CFL_v_max              =   1.7305252842846E-08
(PID.TID 0000.0001) %MON trAdv_CFL_w_max              =   2.3016561244926E-14
(PID.TID 0000.0001) %MON advcfl_uvel_max              =   1.4936781184991E-08
(PID.TID 0000.0001) %MON advcfl_vvel_max              =   1.7269561509243E-08
(PID.TID 0000.0001) %MON advcfl_wvel_max              =   4.5824763239999E-14
(PID.TID 0000.0001) %MON advcfl_W_hf_max              =   0.0000000000000E+00
(PID.TID 0000.0001) %MON pe_b_mean                    =   2.0023709917677E-20
(PID.TID 0000.0001) %MON ke_max                       =   1.9434318318090E-16
(PID.TID 0000.0001) %MON ke_mean                      =   1.5704268082784E-17
(PID.TID 0000.0001) %MON ke_vol                       =   7.5645000000000E+15
(PID.TID 0000.0001) %MON vort_r_min                   =  -6.1096454424730E-13
(PID.TID 0000.0001) %MON vort_r_max                   =   6.6745608081027E-13
(PID.TID 0000.0001) %MON vort_a_mean                  =   8.2299999999999E-05
(PID.TID 0000.0001) %MON vort_a_sd                    =   7.1297555115715E-06
(PID.TID 0000.0001) %MON vort_p_mean                  =   8.3303658536585E-05
(PID.TID 0000.0001) %MON vort_p_sd                    =   1.7411470225803E-05
(PID.TID 0000.0001) %MON surfExpan_theta_mean         =   2.3174122994415E-26
(PID.TID 0000.0001) %MON surfExpan_salt_mean          =   3.4876446953567E-26
(PID.TID 0000.0001) // =======================================================
(PID.TID 0000.0001) // End MONITOR dynamic field statistics
(PID.TID 0000.0001) // =======================================================
 cg2d: Sum(rhs),rhsMax =  -2.48893883670701E-03  1.63401087179628E-09
 cg2d: Sum(rhs),rhsMax =  -2.48382998057058E-03  1.63737188883116E-09
 cg2d: Sum(rhs),rhsMax =  -2.47888907937366E-03  1.64063559078233E-09
 cg2d: Sum(rhs),rhsMax =  -2.47411519866286E-03  1.64380135241634E-09
 cg2d: Sum(rhs),rhsMax =  -2.46950743367309E-03  1.64686856874325E-09
 cg2d: Sum(rhs),rhsMax =  -2.46488173402040E-03  1.64995925637776E-09
 cg2d: Sum(rhs),rhsMax =  -2.46034049092867E-03  1.65300482487196E-09
 cg2d: Sum(rhs),rhsMax =  -2.45596376466243E-03  1.65595072010243E-09
 cg2d: Sum(rhs),rhsMax =  -2.45175066807522E-03  1.65879641687397E-09
 cg2d: Sum(rhs),rhsMax =  -2.44770034462377E-03  1.66154141070151E-09
 cg2d: Sum(rhs),rhsMax =  -2.44381197501930E-03  1.66418521790269E-09
 cg2d: Sum(rhs),rhsMax =  -2.44008470731006E-03  1.66672737644413E-09
 cg2d: Sum(rhs),rhsMax =  -2.43651781331431E-03  1.66916744282160E-09
 cg2d: Sum(rhs),rhsMax =  -2.43311054059670E-03  1.67150499742775E-09
 cg2d: Sum(rhs),rhsMax =  -2.42986218459372E-03  1.67373964027043E-09
 cg2d: Sum(rhs),rhsMax =  -2.42677204996544E-03  1.67587099312544E-09
(PID.TID 0000.0001)      cg2d_init_res =   1.71093881429288E-01
(PID.TID 0000.0001)      cg2d_iters(min,last) =      -1     549
(PID.TID 0000.0001)      cg2d_last_res =   9.53157540320192E-08
(PID.TID 0000.0001) // =======================================================
(PID.TID 0000.0001) // Begin MONITOR dynamic field statistics
(PID.TID 0000.0001) // =======================================================
(PID.TID 0000.0001) %MON time_tsnumber                =                  1120
(PID.TID 0000.0001) %MON time_secondsf                =   6.0480000000000E+06
(PID.TID 0000.0001) %MON dynstat_eta_max              =   1.6165328760723E-08
(PID.TID 0000.0001) %MON dynstat_eta_min              =  -9.7135443577020E-09
(PID.TID 0000.0001) %MON dynstat_eta_mean             =   3.9193756790002E-13
(PID.TID 0000.0001) %MON dynstat_eta_sd               =   4.4647584547334E-09
(PID.TID 0000.0001) %MON dynstat_eta_del2             =   7.6152209724990E-14
(PID.TID 0000.0001) %MON dynstat_uvel_max             =   1.3628960490580E-08
(PID.TID 0000.0001) %MON dynstat_uvel_min             =  -1.0489429488331E-08
(PID.TID 0000.0001) %MON dynstat_uvel_mean            =  -1.0657295670102E-13
(PID.TID 0000.0001) %MON dynstat_uvel_sd              =   3.7254905825317E-09
(PID.TID 0000.0001) %MON dynstat_uvel_del2            =   1.9498154557125E-13
(PID.TID 0000.0001) %MON dynstat_vvel_max             =   1.5446093027627E-08
(PID.TID 0000.0001) %MON dynstat_vvel_min             =  -1.2398454212377E-08
(PID.TID 0000.0001) %MON dynstat_vvel_mean            =   8.4663522698431E-14
(PID.TID 0000.0001) %MON dynstat_vvel_sd              =   4.1129963959117E-09
(PID.TID 0000.0001) %MON dynstat_vvel_del2            =   2.5562441579116E-13
(PID.TID 0000.0001) %MON dynstat_wvel_max             =   1.9511425219942E-14
(PID.TID 0000.0001) %MON dynstat_wvel_min             =  -1.9707164773397E-14
(PID.TID 0000.0001) %MON dynstat_wvel_mean            =   9.3148222413879E-28
(PID.TID 0000.0001) %MON dynstat_wvel_sd              =   8.7660513277379E-15
(PID.TID 0000.0001) %MON dynstat_wvel_del2            =   7.4825671737280E-20
(PID.TID 0000.0001) %MON dynstat_theta_max            =   2.0000000000000E+01
(PID.TID 0000.0001) %MON dynstat_theta_min            =   2.0000000000000E+01
(PID.TID 0000.0001) %MON dynstat_theta_mean           =   2.0000000000000E+01
(PID.TID 0000.0001) %MON dynstat_theta_sd             =   0.0000000000000E+00
(PID.TID 0000.0001) %MON dynstat_theta_del2           =   0.0000000000000E+00
(PID.TID 0000.0001) %MON dynstat_salt_max             =   3.0000000000000E+01
(PID.TID 0000.0001) %MON dynstat_salt_min             =   3.0000000000000E+01
(PID.TID 0000.0001) %MON dynstat_salt_mean            =   3.0000000000000E+01
(PID.TID 0000.0001) %MON dynstat_salt_sd              =   0.0000000000000E+00
(PID.TID 0000.0001) %MON dynstat_salt_del2            =   0.0000000000000E+00
(PID.TID 0000.0001) %MON trAdv_CFL_u_max              =   1.4734686178577E-08
(PID.TID 0000.0001) %MON trAdv_CFL_v_max              =   1.6722601155127E-08
(PID.TID 0000.0001) %MON trAdv_CFL_w_max              =   2.1197260696315E-14
(PID.TID 0000.0001) %MON advcfl_uvel_max              =   1.4719277329827E-08
(PID.TID 0000.0001) %MON advcfl_vvel_max              =   1.6681780469837E-08
(PID.TID 0000.0001) %MON advcfl_wvel_max              =   4.2567475910538E-14
(PID.TID 0000.0001) %MON advcfl_W_hf_max              =   0.0000000000000E+00
(PID.TID 0000.0001) %MON pe_b_mean                    =   1.9555320916687E-20
(PID.TID 0000.0001) %MON ke_max                       =   1.8431984938553E-16
(PID.TID 0000.0001) %MON ke_mean                      =   1.5335416190449E-17
(PID.TID 0000.0001) %MON ke_vol                       =   7.5645000000000E+15
(PID.TID 0000.0001) %MON vort_r_min                   =  -6.0081307081356E-13
(PID.TID 0000.0001) %MON vort_r_max                   =   6.9127564899250E-13
(PID.TID 0000.0001) %MON vort_a_mean                  =   8.2299999999999E-05
(PID.TID 0000.0001) %MON vort_a_sd                    =   7.1297555115611E-06
(PID.TID 0000.0001) %MON vort_p_mean                  =   8.3303658536585E-05
(PID.TID 0000.0001) %MON vort_p_sd                    =   1.7411470225807E-05
(PID.TID 0000.0001) %MON surfExpan_theta_mean         =   1.8692670089738E-26
(PID.TID 0000.0001) %MON surfExpan_salt_mean          =   2.8115541831352E-26
(PID.TID 0000.0001) // =======================================================
(PID.TID 0000.0001) // End MONITOR dynamic field statistics
(PID.TID 0000.0001) // =======================================================
 cg2d: Sum(rhs),rhsMax =  -2.42383947822560E-03  1.67789869866325E-09
 cg2d: Sum(rhs),rhsMax =  -2.42106384475553E-03  1.67982242120646E-09
 cg2d: Sum(rhs),rhsMax =  -2.41844455073640E-03  1.68164184612211E-09
 cg2d: Sum(rhs),rhsMax =  -2.41598101852303E-03  1.68335668057614E-09
 cg2d: Sum(rhs),rhsMax =  -2.41367270258112E-03  1.68496665284030E-09
 cg2d: Sum(rhs),rhsMax =  -2.41151908335696E-03  1.68647151311294E-09
 cg2d: Sum(rhs),rhsMax =  -2.40951968088531E-03  1.68787103274938E-09
 cg2d: Sum(rhs),rhsMax =  -2.40767402139026E-03  1.68916500513661E-09
 cg2d: Sum(rhs),rhsMax =  -2.40573597245839E-03  1.69052588537583E-09
 cg2d: Sum(rhs),rhsMax =  -2.40393798078856E-03  1.69179038652454E-09
 cg2d: Sum(rhs),rhsMax =  -2.40229234067635E-03  1.69294940665659E-09
 cg2d: Sum(rhs),rhsMax =  -2.40079861011350E-03  1.69400282235501E-09
 cg2d: Sum(rhs),rhsMax =  -2.39945637175694E-03  1.69495053165236E-09
 cg2d: Sum(rhs),rhsMax =  -2.39826522728403E-03  1.69579245447753E-09
 cg2d: Sum(rhs),rhsMax =  -2.39722481863503E-03  1.69652853214319E-09
 cg2d: Sum(rhs),rhsMax =  -2.39633480656647E-03  1.69715872792853E-09
(PID.TID 0000.0001)      cg2d_init_res =   1.68579421683153E-01
(PID.TID 0000.0001)      cg2d_iters(min,last) =      -1     549
(PID.TID 0000.0001)      cg2d_last_res =   9.67087897169849E-08
(PID.TID 0000.0001) // =======================================================
(PID.TID 0000.0001) // Begin MONITOR dynamic field statistics
(PID.TID 0000.0001) // =======================================================
(PID.TID 0000.0001) %MON time_tsnumber                =                  1136
(PID.TID 0000.0001) %MON time_secondsf                =   6.1344000000000E+06
(PID.TID 0000.0001) %MON dynstat_eta_max              =   1.6298481714533E-08
(PID.TID 0000.0001) %MON dynstat_eta_min              =  -1.0111864117439E-08
(PID.TID 0000.0001) %MON dynstat_eta_mean             =   3.9193792027634E-13
(PID.TID 0000.0001) %MON dynstat_eta_sd               =   4.4117167936271E-09
(PID.TID 0000.0001) %MON dynstat_eta_del2             =   7.5033426141323E-14
(PID.TID 0000.0001) %MON dynstat_uvel_max             =   1.3388506311670E-08
(PID.TID 0000.0001) %MON dynstat_uvel_min             =  -1.0574290625650E-08
(PID.TID 0000.0001) %MON dynstat_uvel_mean            =  -1.5254487699211E-14
(PID.TID 0000.0001) %MON dynstat_uvel_sd              =   3.6713507052239E-09
(PID.TID 0000.0001) %MON dynstat_uvel_del2            =   1.9247191223068E-13
(PID.TID 0000.0001) %MON dynstat_vvel_max             =   1.4832839402052E-08
(PID.TID 0000.0001) %MON dynstat_vvel_min             =  -1.2184484522021E-08
(PID.TID 0000.0001) %MON dynstat_vvel_mean            =   8.0228673414781E-14
(PID.TID 0000.0001) %MON dynstat_vvel_sd              =   4.0739071283080E-09
(PID.TID 0000.0001) %MON dynstat_vvel_del2            =   2.5261887778009E-13
(PID.TID 0000.0001) %MON dynstat_wvel_max             =   1.7527993809718E-14
(PID.TID 0000.0001) %MON dynstat_wvel_min             =  -1.8701822553924E-14
(PID.TID 0000.0001) %MON dynstat_wvel_mean            =  -7.3020913837613E-28
(PID.TID 0000.0001) %MON dynstat_wvel_sd              =   8.7123650753368E-15
(PID.TID 0000.0001) %MON dynstat_wvel_del2            =   7.4255907561227E-20
(PID.TID 0000.0001) %MON dynstat_theta_max            =   2.0000000000000E+01
(PID.TID 0000.0001) %MON dynstat_theta_min            =   2.0000000000000E+01
(PID.TID 0000.0001) %MON dynstat_theta_mean           =   2.0000000000000E+01
(PID.TID 0000.0001) %MON dynstat_theta_sd             =   0.0000000000000E+00
(PID.TID 0000.0001) %MON dynstat_theta_del2           =   0.0000000000000E+00
(PID.TID 0000.0001) %MON dynstat_salt_max             =   3.0000000000000E+01
(PID.TID 0000.0001) %MON dynstat_salt_min             =   3.0000000000000E+01
(PID.TID 0000.0001) %MON dynstat_salt_mean            =   3.0000000000000E+01
(PID.TID 0000.0001) %MON dynstat_salt_sd              =   0.0000000000000E+00
(PID.TID 0000.0001) %MON dynstat_salt_del2            =   0.0000000000000E+00
(PID.TID 0000.0001) %MON trAdv_CFL_u_max              =   1.4477434359302E-08
(PID.TID 0000.0001) %MON trAdv_CFL_v_max              =   1.6060682396900E-08
(PID.TID 0000.0001) %MON trAdv_CFL_w_max              =   1.9069520537052E-14
(PID.TID 0000.0001) %MON advcfl_uvel_max              =   1.4459586816603E-08
(PID.TID 0000.0001) %MON advcfl_vvel_max              =   1.6019466554216E-08
(PID.TID 0000.0001) %MON advcfl_wvel_max              =   4.0395936716475E-14
(PID.TID 0000.0001) %MON advcfl_W_hf_max              =   0.0000000000000E+00
(PID.TID 0000.0001) %MON pe_b_mean                    =   1.9093443561591E-20
(PID.TID 0000.0001) %MON ke_max                       =   1.7270591849208E-16
(PID.TID 0000.0001) %MON ke_mean                      =   1.4976638511965E-17
(PID.TID 0000.0001) %MON ke_vol                       =   7.5645000000000E+15
(PID.TID 0000.0001) %MON vort_r_min                   =  -5.9356853871801E-13
(PID.TID 0000.0001) %MON vort_r_max                   =   7.0569838054800E-13
(PID.TID 0000.0001) %MON vort_a_mean                  =   8.2300000000001E-05
(PID.TID 0000.0001) %MON vort_a_sd                    =   7.1297555115493E-06
(PID.TID 0000.0001) %MON vort_p_mean                  =   8.3303658536586E-05
(PID.TID 0000.0001) %MON vort_p_sd                    =   1.7411470225808E-05
(PID.TID 0000.0001) %MON surfExpan_theta_mean         =  -1.4454456281201E-26
(PID.TID 0000.0001) %MON surfExpan_salt_mean          =  -2.1686436349979E-26
(PID.TID 0000.0001) // =======================================================
(PID.TID 0000.0001) // End MONITOR dynamic field statistics
(PID.TID 0000.0001) // =======================================================
 cg2d: Sum(rhs),rhsMax =  -2.39559488039306E-03  1.69768302643559E-09
 cg2d: Sum(rhs),rhsMax =  -2.39500474410543E-03  1.69810143426893E-09
 cg2d: Sum(rhs),rhsMax =  -2.39456414929500E-03  1.69841397928535E-09
 cg2d: Sum(rhs),rhsMax =  -2.39427285324117E-03  1.69862071134881E-09
 cg2d: Sum(rhs),rhsMax =  -2.39413064156221E-03  1.69872170150485E-09
 cg2d: Sum(rhs),rhsMax =  -2.39413734147836E-03  1.69871704277732E-09
 cg2d: Sum(rhs),rhsMax =  -2.39429278676047E-03  1.69860684929700E-09
 cg2d: Sum(rhs),rhsMax =  -2.39459685447174E-03  1.69839125711302E-09
 cg2d: Sum(rhs),rhsMax =  -2.39504942265036E-03  1.69807042330161E-09
 cg2d: Sum(rhs),rhsMax =  -2.39565041697548E-03  1.69764452676783E-09
 cg2d: Sum(rhs),rhsMax =  -2.39636906645805E-03  1.69713551078531E-09
 cg2d: Sum(rhs),rhsMax =  -2.39700368079251E-03  1.69668628298230E-09
 cg2d: Sum(rhs),rhsMax =  -2.39778546975137E-03  1.69613319152524E-09
 cg2d: Sum(rhs),rhsMax =  -2.39871433689457E-03  1.69547649674393E-09
 cg2d: Sum(rhs),rhsMax =  -2.39979023012468E-03  1.69471647828025E-09
 cg2d: Sum(rhs),rhsMax =  -2.40101310307136E-03  1.69385343758525E-09
(PID.TID 0000.0001)      cg2d_init_res =   1.69009850331147E-01
(PID.TID 0000.0001)      cg2d_iters(min,last) =      -1     548
(PID.TID 0000.0001)      cg2d_last_res =   9.60313426343003E-08
(PID.TID 0000.0001) // =======================================================
(PID.TID 0000.0001) // Begin MONITOR dynamic field statistics
(PID.TID 0000.0001) // =======================================================
(PID.TID 0000.0001) %MON time_tsnumber                =                  1152
(PID.TID 0000.0001) %MON time_secondsf                =   6.2208000000000E+06
(PID.TID 0000.0001) %MON dynstat_eta_max              =   1.6203151201934E-08
(PID.TID 0000.0001) %MON dynstat_eta_min              =  -1.0542807378407E-08
(PID.TID 0000.0001) %MON dynstat_eta_mean             =   3.9193828476021E-13
(PID.TID 0000.0001) %MON dynstat_eta_sd               =   4.3590780361461E-09
(PID.TID 0000.0001) %MON dynstat_eta_del2             =   7.3931627766962E-14
(PID.TID 0000.0001) %MON dynstat_uvel_max             =   1.3114423492334E-08
(PID.TID 0000.0001) %MON dynstat_uvel_min             =  -1.0654272057621E-08
(PID.TID 0000.0001) %MON dynstat_uvel_mean            =   7.6067830656323E-14
(PID.TID 0000.0001) %MON dynstat_uvel_sd              =   3.6270654860753E-09
(PID.TID 0000.0001) %MON dynstat_uvel_del2            =   1.9007142232860E-13
(PID.TID 0000.0001) %MON dynstat_vvel_max             =   1.4156491765747E-08
(PID.TID 0000.0001) %MON dynstat_vvel_min             =  -1.2008423187798E-08
(PID.TID 0000.0001) %MON dynstat_vvel_mean            =   7.4066867433493E-14
(PID.TID 0000.0001) %MON dynstat_vvel_sd              =   4.0273478631364E-09
(PID.TID 0000.0001) %MON dynstat_vvel_del2            =   2.4995006611495E-13
(PID.TID 0000.0001) %MON dynstat_wvel_max             =   1.5322763824432E-14
(PID.TID 0000.0001) %MON dynstat_wvel_min             =  -1.7347399070555E-14
(PID.TID 0000.0001) %MON dynstat_wvel_mean            =  -1.9105582935869E-28
(PID.TID 0000.0001) %MON dynstat_wvel_sd              =   8.6656620790499E-15
(PID.TID 0000.0001) %MON dynstat_wvel_del2            =   7.3927044921784E-20
(PID.TID 0000.0001) %MON dynstat_theta_max            =   2.0000000000000E+01
(PID.TID 0000.0001) %MON dynstat_theta_min            =   2.0000000000000E+01
(PID.TID 0000.0001) %MON dynstat_theta_mean           =   2.0000000000000E+01
(PID.TID 0000.0001) %MON dynstat_theta_sd             =   0.0000000000000E+00
(PID.TID 0000.0001) %MON dynstat_theta_del2           =   0.0000000000000E+00
(PID.TID 0000.0001) %MON dynstat_salt_max             =   3.0000000000000E+01
(PID.TID 0000.0001) %MON dynstat_salt_min             =   3.0000000000000E+01
(PID.TID 0000.0001) %MON dynstat_salt_mean            =   3.0000000000000E+01
(PID.TID 0000.0001) %MON dynstat_salt_sd              =   0.0000000000000E+00
(PID.TID 0000.0001) %MON dynstat_salt_del2            =   0.0000000000000E+00
(PID.TID 0000.0001) %MON trAdv_CFL_u_max              =   1.4183298901355E-08
(PID.TID 0000.0001) %MON trAdv_CFL_v_max              =   1.5334433047212E-08
(PID.TID 0000.0001) %MON trAdv_CFL_w_max              =   1.6704305600346E-14
(PID.TID 0000.0001) %MON advcfl_uvel_max              =   1.4163577371721E-08
(PID.TID 0000.0001) %MON advcfl_vvel_max              =   1.5289011107007E-08
(PID.TID 0000.0001) %MON advcfl_wvel_max              =   3.7470381992399E-14
(PID.TID 0000.0001) %MON advcfl_W_hf_max              =   0.0000000000000E+00
(PID.TID 0000.0001) %MON pe_b_mean                    =   1.8640531810729E-20
(PID.TID 0000.0001) %MON ke_max                       =   1.6006231598440E-16
(PID.TID 0000.0001) %MON ke_mean                      =   1.4627861872467E-17
(PID.TID 0000.0001) %MON ke_vol                       =   7.5645000000000E+15
(PID.TID 0000.0001) %MON vort_r_min                   =  -5.8971706112177E-13
(PID.TID 0000.0001) %MON vort_r_max                   =   7.1018237063157E-13
(PID.TID 0000.0001) %MON vort_a_mean                  =   8.2300000000000E-05
(PID.TID 0000.0001) %MON vort_a_sd                    =   7.1297555115628E-06
(PID.TID 0000.0001) %MON vort_p_mean                  =   8.3303658536585E-05
(PID.TID 0000.0001) %MON vort_p_sd                    =   1.7411470225823E-05
(PID.TID 0000.0001) %MON surfExpan_theta_mean         =  -3.9599148603318E-27
(PID.TID 0000.0001) %MON surfExpan_salt_mean          =  -5.8803418978915E-27
(PID.TID 0000.0001) // =======================================================
(PID.TID 0000.0001) // End MONITOR dynamic field statistics
(PID.TID 0000.0001) // =======================================================
 cg2d: Sum(rhs),rhsMax =  -2.40238295712711E-03  1.69288769681176E-09
 cg2d: Sum(rhs),rhsMax =  -2.40389982234761E-03  1.69181959911801E-09
 cg2d: Sum(rhs),rhsMax =  -2.40556372013673E-03  1.69064950852671E-09
 cg2d: Sum(rhs),rhsMax =  -2.40737469651189E-03  1.68937780857380E-09
 cg2d: Sum(rhs),rhsMax =  -2.40933284636753E-03  1.68800490525217E-09
 cg2d: Sum(rhs),rhsMax =  -2.41143826760252E-03  1.68653122322690E-09
 cg2d: Sum(rhs),rhsMax =  -2.41369107926751E-03  1.68495720908583E-09
 cg2d: Sum(rhs),rhsMax =  -2.41609151061896E-03  1.68328332791439E-09
 cg2d: Sum(rhs),rhsMax =  -2.41863965668486E-03  1.68151006729779E-09
 cg2d: Sum(rhs),rhsMax =  -2.42133576768294E-03  1.67963793240147E-09
 cg2d: Sum(rhs),rhsMax =  -2.42417998891649E-03  1.67766745048087E-09
 cg2d: Sum(rhs),rhsMax =  -2.42717256965641E-03  1.67559916630299E-09
 cg2d: Sum(rhs),rhsMax =  -2.43031374389858E-03  1.67343364564180E-09
 cg2d: Sum(rhs),rhsMax =  -2.43358469540982E-03  1.67118458018040E-09
 cg2d: Sum(rhs),rhsMax =  -2.43674626918163E-03  1.66901645204754E-09
 cg2d: Sum(rhs),rhsMax =  -2.44005505980915E-03  1.66675339076636E-09
(PID.TID 0000.0001)      cg2d_init_res =   1.72127724734399E-01
(PID.TID 0000.0001)      cg2d_iters(min,last) =      -1     539
(PID.TID 0000.0001)      cg2d_last_res =   9.66816770809444E-08
(PID.TID 0000.0001) // =======================================================
(PID.TID 0000.0001) // Begin MONITOR dynamic field statistics
(PID.TID 0000.0001) // =======================================================
(PID.TID 0000.0001) %MON time_tsnumber                =                  1168
(PID.TID 0000.0001) %MON time_secondsf                =   6.3072000000000E+06
(PID.TID 0000.0001) %MON dynstat_eta_max              =   1.5880651645408E-08
(PID.TID 0000.0001) %MON dynstat_eta_min              =  -1.0795522501600E-08
(PID.TID 0000.0001) %MON dynstat_eta_mean             =   3.9193885372967E-13
(PID.TID 0000.0001) %MON dynstat_eta_sd               =   4.3075940634687E-09
(PID.TID 0000.0001) %MON dynstat_eta_del2             =   7.2848792102915E-14
(PID.TID 0000.0001) %MON dynstat_uvel_max             =   1.2811787861069E-08
(PID.TID 0000.0001) %MON dynstat_uvel_min             =  -1.0724746031073E-08
(PID.TID 0000.0001) %MON dynstat_uvel_mean            =   1.6260769035363E-13
(PID.TID 0000.0001) %MON dynstat_uvel_sd              =   3.5916838612172E-09
(PID.TID 0000.0001) %MON dynstat_uvel_del2            =   1.8739903858396E-13
(PID.TID 0000.0001) %MON dynstat_vvel_max             =   1.3436358157688E-08
(PID.TID 0000.0001) %MON dynstat_vvel_min             =  -1.1879782463065E-08
(PID.TID 0000.0001) %MON dynstat_vvel_mean            =   6.6267493195093E-14
(PID.TID 0000.0001) %MON dynstat_vvel_sd              =   3.9741971710316E-09
(PID.TID 0000.0001) %MON dynstat_vvel_del2            =   2.4803200619557E-13
(PID.TID 0000.0001) %MON dynstat_wvel_max             =   1.3138335870355E-14
(PID.TID 0000.0001) %MON dynstat_wvel_min             =  -1.8432601245344E-14
(PID.TID 0000.0001) %MON dynstat_wvel_mean            =   2.5673566324598E-28
(PID.TID 0000.0001) %MON dynstat_wvel_sd              =   8.6239632419552E-15
(PID.TID 0000.0001) %MON dynstat_wvel_del2            =   7.3734265876099E-20
(PID.TID 0000.0001) %MON dynstat_theta_max            =   2.0000000000000E+01
(PID.TID 0000.0001) %MON dynstat_theta_min            =   2.0000000000000E+01
(PID.TID 0000.0001) %MON dynstat_theta_mean           =   2.0000000000000E+01
(PID.TID 0000.0001) %MON dynstat_theta_sd             =   0.0000000000000E+00
(PID.TID 0000.0001) %MON dynstat_theta_del2           =   0.0000000000000E+00
(PID.TID 0000.0001) %MON dynstat_salt_max             =   3.0000000000000E+01
(PID.TID 0000.0001) %MON dynstat_salt_min             =   3.0000000000000E+01
(PID.TID 0000.0001) %MON dynstat_salt_mean            =   3.0000000000000E+01
(PID.TID 0000.0001) %MON dynstat_salt_sd              =   0.0000000000000E+00
(PID.TID 0000.0001) %MON dynstat_salt_del2            =   0.0000000000000E+00
(PID.TID 0000.0001) %MON trAdv_CFL_u_max              =   1.3858742350984E-08
(PID.TID 0000.0001) %MON trAdv_CFL_v_max              =   1.4558226746756E-08
(PID.TID 0000.0001) %MON trAdv_CFL_w_max              =   1.4173522777039E-14
(PID.TID 0000.0001) %MON advcfl_uvel_max              =   1.3836730889955E-08
(PID.TID 0000.0001) %MON advcfl_vvel_max              =   1.4511266810303E-08
(PID.TID 0000.0001) %MON advcfl_wvel_max              =   3.9814418689943E-14
(PID.TID 0000.0001) %MON advcfl_W_hf_max              =   0.0000000000000E+00
(PID.TID 0000.0001) %MON pe_b_mean                    =   1.8202814800631E-20
(PID.TID 0000.0001) %MON ke_max                       =   1.4679334686805E-16
(PID.TID 0000.0001) %MON ke_mean                      =   1.4288896047315E-17
(PID.TID 0000.0001) %MON ke_vol                       =   7.5645000000000E+15
(PID.TID 0000.0001) %MON vort_r_min                   =  -5.8943330788357E-13
(PID.TID 0000.0001) %MON vort_r_max                   =   7.0474233277881E-13
(PID.TID 0000.0001) %MON vort_a_mean                  =   8.2300000000000E-05
(PID.TID 0000.0001) %MON vort_a_sd                    =   7.1297555115576E-06
(PID.TID 0000.0001) %MON vort_p_mean                  =   8.3303658536585E-05
(PID.TID 0000.0001) %MON vort_p_sd                    =   1.7411470225838E-05
(PID.TID 0000.0001) %MON surfExpan_theta_mean         =   5.0060503789517E-27
(PID.TID 0000.0001) %MON surfExpan_salt_mean          =   7.6412460766728E-27
(PID.TID 0000.0001) // =======================================================
(PID.TID 0000.0001) // End MONITOR dynamic field statistics
(PID.TID 0000.0001) // =======================================================
 cg2d: Sum(rhs),rhsMax =  -2.44351126196221E-03  1.66439603307872E-09
 cg2d: Sum(rhs),rhsMax =  -2.44711513140941E-03  1.66194503501469E-09
 cg2d: Sum(rhs),rhsMax =  -2.45086693629521E-03  1.65940107198873E-09
 cg2d: Sum(rhs),rhsMax =  -2.45476696661013E-03  1.65676483707045E-09
 cg2d: Sum(rhs),rhsMax =  -2.45881555493150E-03  1.65403704277527E-09
 cg2d: Sum(rhs),rhsMax =  -2.46301299615323E-03  1.65121841888474E-09
 cg2d: Sum(rhs),rhsMax =  -2.46735960182343E-03  1.64830971384298E-09
 cg2d: Sum(rhs),rhsMax =  -2.47185575756996E-03  1.64531169435185E-09
 cg2d: Sum(rhs),rhsMax =  -2.47650184069058E-03  1.64222514448739E-09
 cg2d: Sum(rhs),rhsMax =  -2.48129823421774E-03  1.63905086583687E-09
 cg2d: Sum(rhs),rhsMax =  -2.48624534769218E-03  1.63578967808199E-09
 cg2d: Sum(rhs),rhsMax =  -2.49134357188488E-03  1.63244241725251E-09
 cg2d: Sum(rhs),rhsMax =  -2.49659336236411E-03  1.62900993711881E-09
 cg2d: Sum(rhs),rhsMax =  -2.50199516383253E-03  1.62549310829423E-09
 cg2d: Sum(rhs),rhsMax =  -2.50754943736808E-03  1.62189281781569E-09
 cg2d: Sum(rhs),rhsMax =  -2.51325657566661E-03  1.61820996965494E-09
(PID.TID 0000.0001)      cg2d_init_res =   1.77678473560927E-01
(PID.TID 0000.0001)      cg2d_iters(min,last) =      -1     543
(PID.TID 0000.0001)      cg2d_last_res =   9.86214733504180E-08
(PID.TID 0000.0001) // =======================================================
(PID.TID 0000.0001) // Begin MONITOR dynamic field statistics
(PID.TID 0000.0001) // =======================================================
(PID.TID 0000.0001) %MON time_tsnumber                =                  1184
(PID.TID 0000.0001) %MON time_secondsf                =   6.3936000000000E+06
(PID.TID 0000.0001) %MON dynstat_eta_max              =   1.5347379987879E-08
(PID.TID 0000.0001) %MON dynstat_eta_min              =  -1.0866058996411E-08
(PID.TID 0000.0001) %MON dynstat_eta_mean             =   3.9193951301170E-13
(PID.TID 0000.0001) %MON dynstat_eta_sd               =   4.2583305899387E-09
(PID.TID 0000.0001) %MON dynstat_eta_del2             =   7.1792003210781E-14
(PID.TID 0000.0001) %MON dynstat_uvel_max             =   1.2481613376660E-08
(PID.TID 0000.0001) %MON dynstat_uvel_min             =  -1.0794915862178E-08
(PID.TID 0000.0001) %MON dynstat_uvel_mean            =   2.3986972043594E-13
(PID.TID 0000.0001) %MON dynstat_uvel_sd              =   3.5624663865717E-09
(PID.TID 0000.0001) %MON dynstat_uvel_del2            =   1.8414431422321E-13
(PID.TID 0000.0001) %MON dynstat_vvel_max             =   1.2689759022632E-08
(PID.TID 0000.0001) %MON dynstat_vvel_min             =  -1.1802902452993E-08
(PID.TID 0000.0001) %MON dynstat_vvel_mean            =   5.6996880872434E-14
(PID.TID 0000.0001) %MON dynstat_vvel_sd              =   3.9168310865203E-09
(PID.TID 0000.0001) %MON dynstat_vvel_del2            =   2.4714976703585E-13
(PID.TID 0000.0001) %MON dynstat_wvel_max             =   1.4534062084959E-14
(PID.TID 0000.0001) %MON dynstat_wvel_min             =  -2.0000565041922E-14
(PID.TID 0000.0001) %MON dynstat_wvel_mean            =   1.5557871908790E-28
(PID.TID 0000.0001) %MON dynstat_wvel_sd              =   8.5831926926687E-15
(PID.TID 0000.0001) %MON dynstat_wvel_del2            =   7.3694194062831E-20
(PID.TID 0000.0001) %MON dynstat_theta_max            =   2.0000000000000E+01
(PID.TID 0000.0001) %MON dynstat_theta_min            =   2.0000000000000E+01
(PID.TID 0000.0001) %MON dynstat_theta_mean           =   2.0000000000000E+01
(PID.TID 0000.0001) %MON dynstat_theta_sd             =   0.0000000000000E+00
(PID.TID 0000.0001) %MON dynstat_theta_del2           =   0.0000000000000E+00
(PID.TID 0000.0001) %MON dynstat_salt_max             =   3.0000000000000E+01
(PID.TID 0000.0001) %MON dynstat_salt_min             =   3.0000000000000E+01
(PID.TID 0000.0001) %MON dynstat_salt_mean            =   3.0000000000000E+01
(PID.TID 0000.0001) %MON dynstat_salt_sd              =   0.0000000000000E+00
(PID.TID 0000.0001) %MON dynstat_salt_del2            =   0.0000000000000E+00
(PID.TID 0000.0001) %MON trAdv_CFL_u_max              =   1.3503804363704E-08
(PID.TID 0000.0001) %MON trAdv_CFL_v_max              =   1.3753274289383E-08
(PID.TID 0000.0001) %MON trAdv_CFL_w_max              =   1.5604070650799E-14
(PID.TID 0000.0001) %MON advcfl_uvel_max              =   1.3480142446793E-08
(PID.TID 0000.0001) %MON advcfl_vvel_max              =   1.3704939744443E-08
(PID.TID 0000.0001) %MON advcfl_wvel_max              =   4.3201220490552E-14
(PID.TID 0000.0001) %MON advcfl_W_hf_max              =   0.0000000000000E+00
(PID.TID 0000.0001) %MON pe_b_mean                    =   1.7788845355055E-20
(PID.TID 0000.0001) %MON ke_max                       =   1.3330966001697E-16
(PID.TID 0000.0001) %MON ke_mean                      =   1.3959389189552E-17
(PID.TID 0000.0001) %MON ke_vol                       =   7.5645000000000E+15
(PID.TID 0000.0001) %MON vort_r_min                   =  -5.9258042393035E-13
(PID.TID 0000.0001) %MON vort_r_max                   =   6.8993944497184E-13
(PID.TID 0000.0001) %MON vort_a_mean                  =   8.2299999999999E-05
(PID.TID 0000.0001) %MON vort_a_sd                    =   7.1297555115669E-06
(PID.TID 0000.0001) %MON vort_p_mean                  =   8.3303658536585E-05
(PID.TID 0000.0001) %MON vort_p_sd                    =   1.7411470225870E-05
(PID.TID 0000.0001) %MON surfExpan_theta_mean         =   3.1770974689204E-27
(PID.TID 0000.0001) %MON surfExpan_salt_mean          =   4.9403659944108E-27
(PID.TID 0000.0001) // =======================================================
(PID.TID 0000.0001) // End MONITOR dynamic field statistics
(PID.TID 0000.0001) // =======================================================
 cg2d: Sum(rhs),rhsMax =  -2.51911714412503E-03  1.61444548294464E-09
 cg2d: Sum(rhs),rhsMax =  -2.52492871217963E-03  1.61072971745359E-09
 cg2d: Sum(rhs),rhsMax =  -2.53079187528432E-03  1.60699822422324E-09
 cg2d: Sum(rhs),rhsMax =  -2.53680630700219E-03  1.60318836201116E-09
 cg2d: Sum(rhs),rhsMax =  -2.54297245465499E-03  1.59930110507086E-09
 cg2d: Sum(rhs),rhsMax =  -2.54929074199117E-03  1.59533744626143E-09
 cg2d: Sum(rhs),rhsMax =  -2.55576159033810E-03  1.59129839123519E-09
 cg2d: Sum(rhs),rhsMax =  -2.56238545702528E-03  1.58718496146754E-09
 cg2d: Sum(rhs),rhsMax =  -2.56916273571026E-03  1.58299819275294E-09
 cg2d: Sum(rhs),rhsMax =  -2.57609391292317E-03  1.57873913402059E-09
 cg2d: Sum(rhs),rhsMax =  -2.58317942535710E-03  1.57440885085102E-09
 cg2d: Sum(rhs),rhsMax =  -2.59041975796592E-03  1.57000841952623E-09
 cg2d: Sum(rhs),rhsMax =  -2.59781537573730E-03  1.56553893251750E-09
 cg2d: Sum(rhs),rhsMax =  -2.60536675625442E-03  1.56100149451534E-09
 cg2d: Sum(rhs),rhsMax =  -2.61307436632744E-03  1.55639722372049E-09
 cg2d: Sum(rhs),rhsMax =  -2.62093869027666E-03  1.55172725093254E-09
(PID.TID 0000.0001)      cg2d_init_res =   1.85413461895006E-01
(PID.TID 0000.0001)      cg2d_iters(min,last) =      -1     549
(PID.TID 0000.0001)      cg2d_last_res =   9.86506495709414E-08
(PID.TID 0000.0001) // =======================================================
(PID.TID 0000.0001) // Begin MONITOR dynamic field statistics
(PID.TID 0000.0001) // =======================================================
(PID.TID 0000.0001) %MON time_tsnumber                =                  1200
(PID.TID 0000.0001) %MON time_secondsf                =   6.4800000000000E+06
(PID.TID 0000.0001) %MON dynstat_eta_max              =   1.4627405238579E-08
(PID.TID 0000.0001) %MON dynstat_eta_min              =  -1.0764128115682E-08
(PID.TID 0000.0001) %MON dynstat_eta_mean             =   3.9193999460384E-13
(PID.TID 0000.0001) %MON dynstat_eta_sd               =   4.2123965581036E-09
(PID.TID 0000.0001) %MON dynstat_eta_del2             =   7.0771870816155E-14
(PID.TID 0000.0001) %MON dynstat_uvel_max             =   1.2131402044709E-08
(PID.TID 0000.0001) %MON dynstat_uvel_min             =  -1.0846943038036E-08
(PID.TID 0000.0001) %MON dynstat_uvel_mean            =   3.0388843189750E-13
(PID.TID 0000.0001) %MON dynstat_uvel_sd              =   3.5353977006421E-09
(PID.TID 0000.0001) %MON dynstat_uvel_del2            =   1.8012607293193E-13
(PID.TID 0000.0001) %MON dynstat_vvel_max             =   1.2322677692854E-08
(PID.TID 0000.0001) %MON dynstat_vvel_min             =  -1.1782266095012E-08
(PID.TID 0000.0001) %MON dynstat_vvel_mean            =   4.6491899784421E-14
(PID.TID 0000.0001) %MON dynstat_vvel_sd              =   3.8587471097876E-09
(PID.TID 0000.0001) %MON dynstat_vvel_del2            =   2.4739710255525E-13
(PID.TID 0000.0001) %MON dynstat_wvel_max             =   1.5963626299742E-14
(PID.TID 0000.0001) %MON dynstat_wvel_min             =  -2.1142762035575E-14
(PID.TID 0000.0001) %MON dynstat_wvel_mean            =   2.0025488598299E-28
(PID.TID 0000.0001) %MON dynstat_wvel_sd              =   8.5384069402161E-15
(PID.TID 0000.0001) %MON dynstat_wvel_del2            =   7.3671965530023E-20
(PID.TID 0000.0001) %MON dynstat_theta_max            =   2.0000000000000E+01
(PID.TID 0000.0001) %MON dynstat_theta_min            =   2.0000000000000E+01
(PID.TID 0000.0001) %MON dynstat_theta_mean           =   2.0000000000000E+01
(PID.TID 0000.0001) %MON dynstat_theta_sd             =   0.0000000000000E+00
(PID.TID 0000.0001) %MON dynstat_theta_del2           =   0.0000000000000E+00
(PID.TID 0000.0001) %MON dynstat_salt_max             =   3.0000000000000E+01
(PID.TID 0000.0001) %MON dynstat_salt_min             =   3.0000000000000E+01
(PID.TID 0000.0001) %MON dynstat_salt_mean            =   3.0000000000000E+01
(PID.TID 0000.0001) %MON dynstat_salt_sd              =   0.0000000000000E+00
(PID.TID 0000.0001) %MON dynstat_salt_del2            =   0.0000000000000E+00
(PID.TID 0000.0001) %MON trAdv_CFL_u_max              =   1.3125511050896E-08
(PID.TID 0000.0001) %MON trAdv_CFL_v_max              =   1.3327134383095E-08
(PID.TID 0000.0001) %MON trAdv_CFL_w_max              =   1.7142508377610E-14
(PID.TID 0000.0001) %MON advcfl_uvel_max              =   1.3101914208286E-08
(PID.TID 0000.0001) %MON advcfl_vvel_max              =   1.3308491908282E-08
(PID.TID 0000.0001) %MON advcfl_wvel_max              =   4.5668365996843E-14
(PID.TID 0000.0001) %MON advcfl_W_hf_max              =   0.0000000000000E+00
(PID.TID 0000.0001) %MON pe_b_mean                    =   1.7407143502929E-20
(PID.TID 0000.0001) %MON ke_max                       =   1.2006486372983E-16
(PID.TID 0000.0001) %MON ke_mean                      =   1.3638814496158E-17
(PID.TID 0000.0001) %MON ke_vol                       =   7.5645000000000E+15
(PID.TID 0000.0001) %MON vort_r_min                   =  -5.9872705922330E-13
(PID.TID 0000.0001) %MON vort_r_max                   =   6.6684093111227E-13
(PID.TID 0000.0001) %MON vort_a_mean                  =   8.2300000000000E-05
(PID.TID 0000.0001) %MON vort_a_sd                    =   7.1297555115669E-06
(PID.TID 0000.0001) %MON vort_p_mean                  =   8.3303658536585E-05
(PID.TID 0000.0001) %MON vort_p_sd                    =   1.7411470225914E-05
(PID.TID 0000.0001) %MON surfExpan_theta_mean         =   4.0482968053183E-27
(PID.TID 0000.0001) %MON surfExpan_salt_mean          =   6.2100677664839E-27
(PID.TID 0000.0001) // =======================================================
(PID.TID 0000.0001) // End MONITOR dynamic field statistics
(PID.TID 0000.0001) // =======================================================
 cg2d: Sum(rhs),rhsMax =  -2.62896020081501E-03  1.54699271999151E-09
 cg2d: Sum(rhs),rhsMax =  -2.63713937560941E-03  1.54219478664425E-09
 cg2d: Sum(rhs),rhsMax =  -2.64547670436233E-03  1.53733461941200E-09
 cg2d: Sum(rhs),rhsMax =  -2.65397261347451E-03  1.53241339777639E-09
 cg2d: Sum(rhs),rhsMax =  -2.66262762096936E-03  1.52743231417659E-09
 cg2d: Sum(rhs),rhsMax =  -2.67118250394288E-03  1.52254057938064E-09
 cg2d: Sum(rhs),rhsMax =  -2.67981053149115E-03  1.51763865156930E-09
 cg2d: Sum(rhs),rhsMax =  -2.68334592070251E-03  1.51563922605334E-09
 cg2d: Sum(rhs),rhsMax =  -2.68043696110279E-03  1.51728419296836E-09
 cg2d: Sum(rhs),rhsMax =  -2.67751083735798E-03  1.51894247078556E-09
 cg2d: Sum(rhs),rhsMax =  -2.67456886159042E-03  1.52061339472533E-09
 cg2d: Sum(rhs),rhsMax =  -2.67161232931464E-03  1.52229629440520E-09
 cg2d: Sum(rhs),rhsMax =  -2.66864254368426E-03  1.52399049400600E-09
 cg2d: Sum(rhs),rhsMax =  -2.66566080636413E-03  1.52569531243242E-09
 cg2d: Sum(rhs),rhsMax =  -2.66266841115998E-03  1.52741006348295E-09
 cg2d: Sum(rhs),rhsMax =  -2.65966666045206E-03  1.52913405601350E-09
(PID.TID 0000.0001)      cg2d_init_res =   1.87737959296520E-01
(PID.TID 0000.0001)      cg2d_iters(min,last) =      -1     549
(PID.TID 0000.0001)      cg2d_last_res =   9.98951904950171E-08
(PID.TID 0000.0001) // =======================================================
(PID.TID 0000.0001) // Begin MONITOR dynamic field statistics
(PID.TID 0000.0001) // =======================================================
(PID.TID 0000.0001) %MON time_tsnumber                =                  1216
(PID.TID 0000.0001) %MON time_secondsf                =   6.5664000000000E+06
(PID.TID 0000.0001) %MON dynstat_eta_max              =   1.3754795487891E-08
(PID.TID 0000.0001) %MON dynstat_eta_min              =  -1.0493497179098E-08
(PID.TID 0000.0001) %MON dynstat_eta_mean             =   3.9194047569558E-13
(PID.TID 0000.0001) %MON dynstat_eta_sd               =   4.1706175332477E-09
(PID.TID 0000.0001) %MON dynstat_eta_del2             =   6.9800172811684E-14
(PID.TID 0000.0001) %MON dynstat_uvel_max             =   1.1765834964486E-08
(PID.TID 0000.0001) %MON dynstat_uvel_min             =  -1.0896948027723E-08
(PID.TID 0000.0001) %MON dynstat_uvel_mean            =   3.5143590952064E-13
(PID.TID 0000.0001) %MON dynstat_uvel_sd              =   3.5059637715032E-09
(PID.TID 0000.0001) %MON dynstat_uvel_del2            =   1.7532592006142E-13
(PID.TID 0000.0001) %MON dynstat_vvel_max             =   1.1980559707253E-08
(PID.TID 0000.0001) %MON dynstat_vvel_min             =  -1.1805782817880E-08
(PID.TID 0000.0001) %MON dynstat_vvel_mean            =   3.5049843119513E-14
(PID.TID 0000.0001) %MON dynstat_vvel_sd              =   3.8039437512344E-09
(PID.TID 0000.0001) %MON dynstat_vvel_del2            =   2.4865566589998E-13
(PID.TID 0000.0001) %MON dynstat_wvel_max             =   1.7318500794561E-14
(PID.TID 0000.0001) %MON dynstat_wvel_min             =  -2.1822282032513E-14
(PID.TID 0000.0001) %MON dynstat_wvel_mean            =   3.1440133037082E-28
(PID.TID 0000.0001) %MON dynstat_wvel_sd              =   8.4852175745365E-15
(PID.TID 0000.0001) %MON dynstat_wvel_del2            =   7.3604248247506E-20
(PID.TID 0000.0001) %MON dynstat_theta_max            =   2.0000000000000E+01
(PID.TID 0000.0001) %MON dynstat_theta_min            =   2.0000000000000E+01
(PID.TID 0000.0001) %MON dynstat_theta_mean           =   2.0000000000000E+01
(PID.TID 0000.0001) %MON dynstat_theta_sd             =   0.0000000000000E+00
(PID.TID 0000.0001) %MON dynstat_theta_del2           =   0.0000000000000E+00
(PID.TID 0000.0001) %MON dynstat_salt_max             =   3.0000000000000E+01
(PID.TID 0000.0001) %MON dynstat_salt_min             =   3.0000000000000E+01
(PID.TID 0000.0001) %MON dynstat_salt_mean            =   3.0000000000000E+01
(PID.TID 0000.0001) %MON dynstat_salt_sd              =   0.0000000000000E+00
(PID.TID 0000.0001) %MON dynstat_salt_del2            =   0.0000000000000E+00
(PID.TID 0000.0001) %MON trAdv_CFL_u_max              =   1.2731436259977E-08
(PID.TID 0000.0001) %MON trAdv_CFL_v_max              =   1.2965890989058E-08
(PID.TID 0000.0001) %MON trAdv_CFL_w_max              =   1.8617223524808E-14
(PID.TID 0000.0001) %MON advcfl_uvel_max              =   1.2707101761645E-08
(PID.TID 0000.0001) %MON advcfl_vvel_max              =   1.2939004483833E-08
(PID.TID 0000.0001) %MON advcfl_wvel_max              =   4.7136129190228E-14
(PID.TID 0000.0001) %MON advcfl_W_hf_max              =   0.0000000000000E+00
(PID.TID 0000.0001) %MON pe_b_mean                    =   1.7063563797767E-20
(PID.TID 0000.0001) %MON ke_max                       =   1.1242381695561E-16
(PID.TID 0000.0001) %MON ke_mean                      =   1.3326491235415E-17
(PID.TID 0000.0001) %MON ke_vol                       =   7.5645000000000E+15
(PID.TID 0000.0001) %MON vort_r_min                   =  -6.0718039401462E-13
(PID.TID 0000.0001) %MON vort_r_max                   =   6.3717876419596E-13
(PID.TID 0000.0001) %MON vort_a_mean                  =   8.2300000000000E-05
(PID.TID 0000.0001) %MON vort_a_sd                    =   7.1297555115586E-06
(PID.TID 0000.0001) %MON vort_p_mean                  =   8.3303658536586E-05
(PID.TID 0000.0001) %MON vort_p_sd                    =   1.7411470225972E-05
(PID.TID 0000.0001) %MON surfExpan_theta_mean         =   6.2560065247549E-27
(PID.TID 0000.0001) %MON surfExpan_salt_mean          =   9.4576622944211E-27
(PID.TID 0000.0001) // =======================================================
(PID.TID 0000.0001) // End MONITOR dynamic field statistics
(PID.TID 0000.0001) // =======================================================
 cg2d: Sum(rhs),rhsMax =  -2.65665688929347E-03  1.53086659411178E-09
 cg2d: Sum(rhs),rhsMax =  -2.65364034429437E-03  1.53260697726297E-09
 cg2d: Sum(rhs),rhsMax =  -2.65061831649416E-03  1.53435450052555E-09
 cg2d: Sum(rhs),rhsMax =  -2.64759208833793E-03  1.53610845461688E-09
 cg2d: Sum(rhs),rhsMax =  -2.64456293886655E-03  1.53786812629269E-09
 cg2d: Sum(rhs),rhsMax =  -2.64153213710290E-03  1.53963279826470E-09
 cg2d: Sum(rhs),rhsMax =  -2.63850096304586E-03  1.54140174958033E-09
 cg2d: Sum(rhs),rhsMax =  -2.63547074325443E-03  1.54317425529679E-09
 cg2d: Sum(rhs),rhsMax =  -2.63244266001744E-03  1.54494958852785E-09
 cg2d: Sum(rhs),rhsMax =  -2.62941798406628E-03  1.54672701712895E-09
 cg2d: Sum(rhs),rhsMax =  -2.62639795326850E-03  1.54850580719777E-09
 cg2d: Sum(rhs),rhsMax =  -2.62338380409691E-03  1.55028522157225E-09
 cg2d: Sum(rhs),rhsMax =  -2.62037685071224E-03  1.55206452061583E-09
 cg2d: Sum(rhs),rhsMax =  -2.61737823914640E-03  1.55384296177004E-09
 cg2d: Sum(rhs),rhsMax =  -2.61438920257550E-03  1.55561980042643E-09
 cg2d: Sum(rhs),rhsMax =  -2.61141093691277E-03  1.55739428977033E-09
(PID.TID 0000.0001)      cg2d_init_res =   1.83220555010835E-01
(PID.TID 0000.0001)      cg2d_iters(min,last) =      -1     547
(PID.TID 0000.0001)      cg2d_last_res =   9.26637786339093E-08
(PID.TID 0000.0001) // =======================================================
(PID.TID 0000.0001) // Begin MONITOR dynamic field statistics
(PID.TID 0000.0001) // =======================================================
(PID.TID 0000.0001) %MON time_tsnumber                =                  1232
(PID.TID 0000.0001) %MON time_secondsf                =   6.6528000000000E+06
(PID.TID 0000.0001) %MON dynstat_eta_max              =   1.2759707530635E-08
(PID.TID 0000.0001) %MON dynstat_eta_min              =  -1.0057064817801E-08
(PID.TID 0000.0001) %MON dynstat_eta_mean             =   3.9194144889636E-13
(PID.TID 0000.0001) %MON dynstat_eta_sd               =   4.1332406570548E-09
(PID.TID 0000.0001) %MON dynstat_eta_del2             =   6.8887087073558E-14
(PID.TID 0000.0001) %MON dynstat_uvel_max             =   1.1391697194283E-08
(PID.TID 0000.0001) %MON dynstat_uvel_min             =  -1.0924104691811E-08
(PID.TID 0000.0001) %MON dynstat_uvel_mean            =   3.8018798625452E-13
(PID.TID 0000.0001) %MON dynstat_uvel_sd              =   3.4700021382297E-09
(PID.TID 0000.0001) %MON dynstat_uvel_del2            =   1.6989481602023E-13
(PID.TID 0000.0001) %MON dynstat_vvel_max             =   1.1523386159248E-08
(PID.TID 0000.0001) %MON dynstat_vvel_min             =  -1.1862952280163E-08
(PID.TID 0000.0001) %MON dynstat_vvel_mean            =   2.3015016692247E-14
(PID.TID 0000.0001) %MON dynstat_vvel_sd              =   3.7561493884407E-09
(PID.TID 0000.0001) %MON dynstat_vvel_del2            =   2.5062279835389E-13
(PID.TID 0000.0001) %MON dynstat_wvel_max             =   1.8420394287677E-14
(PID.TID 0000.0001) %MON dynstat_wvel_min             =  -2.2006533475505E-14
(PID.TID 0000.0001) %MON dynstat_wvel_mean            =   1.0825357374787E-27
(PID.TID 0000.0001) %MON dynstat_wvel_sd              =   8.4210647748068E-15
(PID.TID 0000.0001) %MON dynstat_wvel_del2            =   7.3363043956461E-20
(PID.TID 0000.0001) %MON dynstat_theta_max            =   2.0000000000000E+01
(PID.TID 0000.0001) %MON dynstat_theta_min            =   2.0000000000000E+01
(PID.TID 0000.0001) %MON dynstat_theta_mean           =   2.0000000000000E+01
(PID.TID 0000.0001) %MON dynstat_theta_sd             =   0.0000000000000E+00
(PID.TID 0000.0001) %MON dynstat_theta_del2           =   0.0000000000000E+00
(PID.TID 0000.0001) %MON dynstat_salt_max             =   3.0000000000000E+01
(PID.TID 0000.0001) %MON dynstat_salt_min             =   3.0000000000000E+01
(PID.TID 0000.0001) %MON dynstat_salt_mean            =   3.0000000000000E+01
(PID.TID 0000.0001) %MON dynstat_salt_sd              =   0.0000000000000E+00
(PID.TID 0000.0001) %MON dynstat_salt_del2            =   0.0000000000000E+00
(PID.TID 0000.0001) %MON trAdv_CFL_u_max              =   1.2329191419244E-08
(PID.TID 0000.0001) %MON trAdv_CFL_v_max              =   1.2807328367887E-08
(PID.TID 0000.0001) %MON trAdv_CFL_w_max              =   1.9831059191189E-14
(PID.TID 0000.0001) %MON advcfl_uvel_max              =   1.2303032969825E-08
(PID.TID 0000.0001) %MON advcfl_vvel_max              =   1.2811988462576E-08
(PID.TID 0000.0001) %MON advcfl_wvel_max              =   4.7534112307090E-14
(PID.TID 0000.0001) %MON advcfl_W_hf_max              =   0.0000000000000E+00
(PID.TID 0000.0001) %MON pe_b_mean                    =   1.6759088591576E-20
(PID.TID 0000.0001) %MON ke_max                       =   1.1535579649312E-16
(PID.TID 0000.0001) %MON ke_mean                      =   1.3021637067287E-17
(PID.TID 0000.0001) %MON ke_vol                       =   7.5645000000000E+15
(PID.TID 0000.0001) %MON vort_r_min                   =  -6.1703317211692E-13
(PID.TID 0000.0001) %MON vort_r_max                   =   6.0269890933027E-13
(PID.TID 0000.0001) %MON vort_a_mean                  =   8.2300000000000E-05
(PID.TID 0000.0001) %MON vort_a_sd                    =   7.1297555115657E-06
(PID.TID 0000.0001) %MON vort_p_mean                  =   8.3303658536585E-05
(PID.TID 0000.0001) %MON vort_p_sd                    =   1.7411470226057E-05
(PID.TID 0000.0001) %MON surfExpan_theta_mean         =   2.1689673539814E-26
(PID.TID 0000.0001) %MON surfExpan_salt_mean          =   3.2538651135735E-26
(PID.TID 0000.0001) // =======================================================
(PID.TID 0000.0001) // End MONITOR dynamic field statistics
(PID.TID 0000.0001) // =======================================================
 cg2d: Sum(rhs),rhsMax =  -2.60844465272591E-03  1.55916568103832E-09
 cg2d: Sum(rhs),rhsMax =  -2.60549154423827E-03  1.56093322355583E-09
 cg2d: Sum(rhs),rhsMax =  -2.60255312788491E-03  1.56269616633179E-09
 cg2d: Sum(rhs),rhsMax =  -2.59963025619115E-03  1.56445375315844E-09
 cg2d: Sum(rhs),rhsMax =  -2.59672410152846E-03  1.56620523035647E-09
 cg2d: Sum(rhs),rhsMax =  -2.59383623016393E-03  1.56794984051672E-09
 cg2d: Sum(rhs),rhsMax =  -2.59096751621220E-03  1.56968683013803E-09
 cg2d: Sum(rhs),rhsMax =  -2.58811895208792E-03  1.57141543935799E-09
 cg2d: Sum(rhs),rhsMax =  -2.58529186318341E-03  1.57313491060798E-09
 cg2d: Sum(rhs),rhsMax =  -2.58248743782870E-03  1.57484448365680E-09
 cg2d: Sum(rhs),rhsMax =  -2.57970755115071E-03  1.57654339952157E-09
 cg2d: Sum(rhs),rhsMax =  -2.57695187786429E-03  1.57823090523442E-09
 cg2d: Sum(rhs),rhsMax =  -2.57422250677267E-03  1.57990623236363E-09
 cg2d: Sum(rhs),rhsMax =  -2.57152117238880E-03  1.58156862926919E-09
 cg2d: Sum(rhs),rhsMax =  -2.56885087760608E-03  1.58321733641216E-09
 cg2d: Sum(rhs),rhsMax =  -2.56622394379549E-03  1.58485159694848E-09
(PID.TID 0000.0001)      cg2d_init_res =   1.78192690888170E-01
(PID.TID 0000.0001)      cg2d_iters(min,last) =      -1     460
(PID.TID 0000.0001)      cg2d_last_res =   9.74438638958936E-08
(PID.TID 0000.0001) // =======================================================
(PID.TID 0000.0001) // Begin MONITOR dynamic field statistics
(PID.TID 0000.0001) // =======================================================
(PID.TID 0000.0001) %MON time_tsnumber                =                  1248
(PID.TID 0000.0001) %MON time_secondsf                =   6.7392000000000E+06
(PID.TID 0000.0001) %MON dynstat_eta_max              =   1.1678900294923E-08
(PID.TID 0000.0001) %MON dynstat_eta_min              =  -1.1094076890600E-08
(PID.TID 0000.0001) %MON dynstat_eta_mean             =   3.9132628397305E-13
(PID.TID 0000.0001) %MON dynstat_eta_sd               =   4.0997568606364E-09
(PID.TID 0000.0001) %MON dynstat_eta_del2             =   6.8038508252722E-14
(PID.TID 0000.0001) %MON dynstat_uvel_max             =   1.1018630755479E-08
(PID.TID 0000.0001) %MON dynstat_uvel_min             =  -1.0938483982644E-08
(PID.TID 0000.0001) %MON dynstat_uvel_mean            =   3.8884040256354E-13
(PID.TID 0000.0001) %MON dynstat_uvel_sd              =   3.4244503092524E-09
(PID.TID 0000.0001) %MON dynstat_uvel_del2            =   1.6413233493186E-13
(PID.TID 0000.0001) %MON dynstat_vvel_max             =   1.0982939069888E-08
(PID.TID 0000.0001) %MON dynstat_vvel_min             =  -1.1940047746208E-08
(PID.TID 0000.0001) %MON dynstat_vvel_mean            =   1.0762891807271E-14
(PID.TID 0000.0001) %MON dynstat_vvel_sd              =   3.7180493875317E-09
(PID.TID 0000.0001) %MON dynstat_vvel_del2            =   2.5287820008041E-13
(PID.TID 0000.0001) %MON dynstat_wvel_max             =   1.9174565341062E-14
(PID.TID 0000.0001) %MON dynstat_wvel_min             =  -2.1681770305815E-14
(PID.TID 0000.0001) %MON dynstat_wvel_mean            =  -7.8406998613004E-28
(PID.TID 0000.0001) %MON dynstat_wvel_sd              =   8.3460602870949E-15
(PID.TID 0000.0001) %MON dynstat_wvel_del2            =   7.2920176467613E-20
(PID.TID 0000.0001) %MON dynstat_theta_max            =   2.0000000000000E+01
(PID.TID 0000.0001) %MON dynstat_theta_min            =   2.0000000000000E+01
(PID.TID 0000.0001) %MON dynstat_theta_mean           =   2.0000000000000E+01
(PID.TID 0000.0001) %MON dynstat_theta_sd             =   0.0000000000000E+00
(PID.TID 0000.0001) %MON dynstat_theta_del2           =   0.0000000000000E+00
(PID.TID 0000.0001) %MON dynstat_salt_max             =   3.0000000000000E+01
(PID.TID 0000.0001) %MON dynstat_salt_min             =   3.0000000000000E+01
(PID.TID 0000.0001) %MON dynstat_salt_mean            =   3.0000000000000E+01
(PID.TID 0000.0001) %MON dynstat_salt_sd              =   0.0000000000000E+00
(PID.TID 0000.0001) %MON dynstat_salt_del2            =   0.0000000000000E+00
(PID.TID 0000.0001) %MON trAdv_CFL_u_max              =   1.1925913565269E-08
(PID.TID 0000.0001) %MON trAdv_CFL_v_max              =   1.2889741299669E-08
(PID.TID 0000.0001) %MON trAdv_CFL_w_max              =   2.0668132615365E-14
(PID.TID 0000.0001) %MON advcfl_uvel_max              =   1.1900121215918E-08
(PID.TID 0000.0001) %MON advcfl_vvel_max              =   1.2895251565905E-08
(PID.TID 0000.0001) %MON advcfl_wvel_max              =   4.6832623860560E-14
(PID.TID 0000.0001) %MON advcfl_W_hf_max              =   0.0000000000000E+00
(PID.TID 0000.0001) %MON pe_b_mean                    =   1.6488654346552E-20
(PID.TID 0000.0001) %MON ke_max                       =   1.1652508800954E-16
(PID.TID 0000.0001) %MON ke_mean                      =   1.2723443238606E-17
(PID.TID 0000.0001) %MON ke_vol                       =   7.5645000000000E+15
(PID.TID 0000.0001) %MON vort_r_min                   =  -6.2722205759136E-13
(PID.TID 0000.0001) %MON vort_r_max                   =   5.6543427709852E-13
(PID.TID 0000.0001) %MON vort_a_mean                  =   8.2299999999999E-05
(PID.TID 0000.0001) %MON vort_a_sd                    =   7.1297555115699E-06
(PID.TID 0000.0001) %MON vort_p_mean                  =   8.3303658536585E-05
(PID.TID 0000.0001) %MON vort_p_sd                    =   1.7411470226163E-05
(PID.TID 0000.0001) %MON surfExpan_theta_mean         =  -1.5670981807456E-26
(PID.TID 0000.0001) %MON surfExpan_salt_mean          =  -2.3502672288390E-26
(PID.TID 0000.0001) // =======================================================
(PID.TID 0000.0001) // End MONITOR dynamic field statistics
(PID.TID 0000.0001) // =======================================================
 cg2d: Sum(rhs),rhsMax =  -2.55952675916289E-03  1.58647065510863E-09
 cg2d: Sum(rhs),rhsMax =  -2.55693353598253E-03  1.58807375391685E-09
 cg2d: Sum(rhs),rhsMax =  -2.55437640195205E-03  1.58966014198937E-09
 cg2d: Sum(rhs),rhsMax =  -2.55185363027648E-03  1.59122906613159E-09
 cg2d: Sum(rhs),rhsMax =  -2.54936604020401E-03  1.59277977601437E-09
 cg2d: Sum(rhs),rhsMax =  -2.54691401717116E-03  1.59431152115194E-09
 cg2d: Sum(rhs),rhsMax =  -2.54449897856924E-03  1.59582355697425E-09
 cg2d: Sum(rhs),rhsMax =  -2.54212126921892E-03  1.59731513478325E-09
 cg2d: Sum(rhs),rhsMax =  -2.53978201662431E-03  1.59878551460639E-09
 cg2d: Sum(rhs),rhsMax =  -2.53748196805551E-03  1.60023395514526E-09
 cg2d: Sum(rhs),rhsMax =  -2.53522207622246E-03  1.60165971938913E-09
 cg2d: Sum(rhs),rhsMax =  -2.53300328149321E-03  1.60306207254104E-09
 cg2d: Sum(rhs),rhsMax =  -2.53082651740690E-03  1.60444028293026E-09
 cg2d: Sum(rhs),rhsMax =  -2.52869272501945E-03  1.60579362205740E-09
 cg2d: Sum(rhs),rhsMax =  -2.52660281838693E-03  1.60712136474104E-09
 cg2d: Sum(rhs),rhsMax =  -2.52455772545833E-03  1.60842278934065E-09
(PID.TID 0000.0001)      cg2d_init_res =   1.73043884460560E-01
(PID.TID 0000.0001)      cg2d_iters(min,last) =      -1     544
(PID.TID 0000.0001)      cg2d_last_res =   9.42399139385913E-08
(PID.TID 0000.0001) // =======================================================
(PID.TID 0000.0001) // Begin MONITOR dynamic field statistics
(PID.TID 0000.0001) // =======================================================
(PID.TID 0000.0001) %MON time_tsnumber                =                  1264
(PID.TID 0000.0001) %MON time_secondsf                =   6.8256000000000E+06
(PID.TID 0000.0001) %MON dynstat_eta_max              =   1.0551638132838E-08
(PID.TID 0000.0001) %MON dynstat_eta_min              =  -1.2046036619916E-08
(PID.TID 0000.0001) %MON dynstat_eta_mean             =   3.9132059438435E-13
(PID.TID 0000.0001) %MON dynstat_eta_sd               =   4.0688990531788E-09
(PID.TID 0000.0001) %MON dynstat_eta_del2             =   6.7253985479330E-14
(PID.TID 0000.0001) %MON dynstat_uvel_max             =   1.0650814229157E-08
(PID.TID 0000.0001) %MON dynstat_uvel_min             =  -1.0934178072670E-08
(PID.TID 0000.0001) %MON dynstat_uvel_mean            =   3.7716873583714E-13
(PID.TID 0000.0001) %MON dynstat_uvel_sd              =   3.3678738428902E-09
(PID.TID 0000.0001) %MON dynstat_uvel_del2            =   1.5843809180490E-13
(PID.TID 0000.0001) %MON dynstat_vvel_max             =   1.0399677897427E-08
(PID.TID 0000.0001) %MON dynstat_vvel_min             =  -1.2020653744516E-08
(PID.TID 0000.0001) %MON dynstat_vvel_mean            =  -1.3175034370629E-15
(PID.TID 0000.0001) %MON dynstat_vvel_sd              =   3.6906943030106E-09
(PID.TID 0000.0001) %MON dynstat_vvel_del2            =   2.5496865910153E-13
(PID.TID 0000.0001) %MON dynstat_wvel_max             =   1.9527858569068E-14
(PID.TID 0000.0001) %MON dynstat_wvel_min             =  -2.0866412451248E-14
(PID.TID 0000.0001) %MON dynstat_wvel_mean            =  -1.5539932300763E-28
(PID.TID 0000.0001) %MON dynstat_wvel_sd              =   8.2632200377296E-15
(PID.TID 0000.0001) %MON dynstat_wvel_del2            =   7.2181518506367E-20
(PID.TID 0000.0001) %MON dynstat_theta_max            =   2.0000000000000E+01
(PID.TID 0000.0001) %MON dynstat_theta_min            =   2.0000000000000E+01
(PID.TID 0000.0001) %MON dynstat_theta_mean           =   2.0000000000000E+01
(PID.TID 0000.0001) %MON dynstat_theta_sd             =   0.0000000000000E+00
(PID.TID 0000.0001) %MON dynstat_theta_del2           =   0.0000000000000E+00
(PID.TID 0000.0001) %MON dynstat_salt_max             =   3.0000000000000E+01
(PID.TID 0000.0001) %MON dynstat_salt_min             =   3.0000000000000E+01
(PID.TID 0000.0001) %MON dynstat_salt_mean            =   3.0000000000000E+01
(PID.TID 0000.0001) %MON dynstat_salt_sd              =   0.0000000000000E+00
(PID.TID 0000.0001) %MON dynstat_salt_del2            =   0.0000000000000E+00
(PID.TID 0000.0001) %MON trAdv_CFL_u_max              =   1.1809970551458E-08
(PID.TID 0000.0001) %MON trAdv_CFL_v_max              =   1.2977117393601E-08
(PID.TID 0000.0001) %MON trAdv_CFL_w_max              =   2.1077995041363E-14
(PID.TID 0000.0001) %MON advcfl_uvel_max              =   1.1808912318484E-08
(PID.TID 0000.0001) %MON advcfl_vvel_max              =   1.2982306044077E-08
(PID.TID 0000.0001) %MON advcfl_wvel_max              =   4.5071450894696E-14
(PID.TID 0000.0001) %MON advcfl_W_hf_max              =   0.0000000000000E+00
(PID.TID 0000.0001) %MON pe_b_mean                    =   1.6241376804588E-20
(PID.TID 0000.0001) %MON ke_max                       =   1.1576333289695E-16
(PID.TID 0000.0001) %MON ke_mean                      =   1.2431159972619E-17
(PID.TID 0000.0001) %MON ke_vol                       =   7.5645000000000E+15
(PID.TID 0000.0001) %MON vort_r_min                   =  -6.3659402185060E-13
(PID.TID 0000.0001) %MON vort_r_max                   =   5.2760136757997E-13
(PID.TID 0000.0001) %MON vort_a_mean                  =   8.2300000000000E-05
(PID.TID 0000.0001) %MON vort_a_sd                    =   7.1297555115629E-06
(PID.TID 0000.0001) %MON vort_p_mean                  =   8.3303658536585E-05
(PID.TID 0000.0001) %MON vort_p_sd                    =   1.7411470226286E-05
(PID.TID 0000.0001) %MON surfExpan_theta_mean         =  -3.0963838343061E-27
(PID.TID 0000.0001) %MON surfExpan_salt_mean          =  -4.6400721272753E-27
(PID.TID 0000.0001) // =======================================================
(PID.TID 0000.0001) // End MONITOR dynamic field statistics
(PID.TID 0000.0001) // =======================================================
 cg2d: Sum(rhs),rhsMax =  -2.52255834921998E-03  1.60969717788410E-09
 cg2d: Sum(rhs),rhsMax =  -2.52060559957264E-03  1.61094381627354E-09
 cg2d: Sum(rhs),rhsMax =  -2.51870036321587E-03  1.61216199442160E-09
 cg2d: Sum(rhs),rhsMax =  -2.51684353982529E-03  1.61335100644543E-09
 cg2d: Sum(rhs),rhsMax =  -2.51503600821933E-03  1.61451015081163E-09
 cg2d: Sum(rhs),rhsMax =  -2.51327863940993E-03  1.61563873051765E-09
 cg2d: Sum(rhs),rhsMax =  -2.51157230585416E-03  1.61673605324410E-09
 cg2d: Sum(rhs),rhsMax =  -2.50991786803790E-03  1.61780143152633E-09
 cg2d: Sum(rhs),rhsMax =  -2.50831617683488E-03  1.61883418291031E-09
 cg2d: Sum(rhs),rhsMax =  -2.50676808742648E-03  1.61983363011804E-09
 cg2d: Sum(rhs),rhsMax =  -2.50527443848429E-03  1.62079910120376E-09
 cg2d: Sum(rhs),rhsMax =  -2.50383607045272E-03  1.62172992971440E-09
 cg2d: Sum(rhs),rhsMax =  -2.50245381465846E-03  1.62262545484545E-09
 cg2d: Sum(rhs),rhsMax =  -2.50112848687497E-03  1.62348502159804E-09
 cg2d: Sum(rhs),rhsMax =  -2.49986091521684E-03  1.62430798093208E-09
 cg2d: Sum(rhs),rhsMax =  -2.49865191978353E-03  1.62509368992068E-09
(PID.TID 0000.0001)      cg2d_init_res =   1.68199245933535E-01
(PID.TID 0000.0001)      cg2d_iters(min,last) =      -1     544
(PID.TID 0000.0001)      cg2d_last_res =   9.21279160762436E-08
(PID.TID 0000.0001) // =======================================================
(PID.TID 0000.0001) // Begin MONITOR dynamic field statistics
(PID.TID 0000.0001) // =======================================================
(PID.TID 0000.0001) %MON time_tsnumber                =                  1280
(PID.TID 0000.0001) %MON time_secondsf                =   6.9120000000000E+06
(PID.TID 0000.0001) %MON dynstat_eta_max              =   9.4188873298263E-09
(PID.TID 0000.0001) %MON dynstat_eta_min              =  -1.2818363425520E-08
(PID.TID 0000.0001) %MON dynstat_eta_mean             =   3.9131942397140E-13
(PID.TID 0000.0001) %MON dynstat_eta_sd               =   4.0388291117327E-09
(PID.TID 0000.0001) %MON dynstat_eta_del2             =   6.6525738739557E-14
(PID.TID 0000.0001) %MON dynstat_uvel_max             =   1.0292624716388E-08
(PID.TID 0000.0001) %MON dynstat_uvel_min             =  -1.0900920519703E-08
(PID.TID 0000.0001) %MON dynstat_uvel_mean            =   3.4602963344131E-13
(PID.TID 0000.0001) %MON dynstat_uvel_sd              =   3.3007139950507E-09
(PID.TID 0000.0001) %MON dynstat_uvel_del2            =   1.5323650217195E-13
(PID.TID 0000.0001) %MON dynstat_vvel_max             =   9.8070474115619E-09
(PID.TID 0000.0001) %MON dynstat_vvel_min             =  -1.2086737790787E-08
(PID.TID 0000.0001) %MON dynstat_vvel_mean            =  -1.2841628323756E-14
(PID.TID 0000.0001) %MON dynstat_vvel_sd              =   3.6732516593591E-09
(PID.TID 0000.0001) %MON dynstat_vvel_del2            =   2.5648942239163E-13
(PID.TID 0000.0001) %MON dynstat_wvel_max             =   1.9465292813159E-14
(PID.TID 0000.0001) %MON dynstat_wvel_min             =  -1.9602906680127E-14
(PID.TID 0000.0001) %MON dynstat_wvel_mean            =  -5.3171742641196E-29
(PID.TID 0000.0001) %MON dynstat_wvel_sd              =   8.1780189863424E-15
(PID.TID 0000.0001) %MON dynstat_wvel_del2            =   7.1212273723488E-20
(PID.TID 0000.0001) %MON dynstat_theta_max            =   2.0000000000000E+01
(PID.TID 0000.0001) %MON dynstat_theta_min            =   2.0000000000000E+01
(PID.TID 0000.0001) %MON dynstat_theta_mean           =   2.0000000000000E+01
(PID.TID 0000.0001) %MON dynstat_theta_sd             =   0.0000000000000E+00
(PID.TID 0000.0001) %MON dynstat_theta_del2           =   0.0000000000000E+00
(PID.TID 0000.0001) %MON dynstat_salt_max             =   3.0000000000000E+01
(PID.TID 0000.0001) %MON dynstat_salt_min             =   3.0000000000000E+01
(PID.TID 0000.0001) %MON dynstat_salt_mean            =   3.0000000000000E+01
(PID.TID 0000.0001) %MON dynstat_salt_sd              =   0.0000000000000E+00
(PID.TID 0000.0001) %MON dynstat_salt_del2            =   0.0000000000000E+00
(PID.TID 0000.0001) %MON trAdv_CFL_u_max              =   1.1776549431732E-08
(PID.TID 0000.0001) %MON trAdv_CFL_v_max              =   1.3050054852432E-08
(PID.TID 0000.0001) %MON trAdv_CFL_w_max              =   2.1040712291276E-14
(PID.TID 0000.0001) %MON advcfl_uvel_max              =   1.1772994161280E-08
(PID.TID 0000.0001) %MON advcfl_vvel_max              =   1.3053676814050E-08
(PID.TID 0000.0001) %MON advcfl_wvel_max              =   4.2342278429075E-14
(PID.TID 0000.0001) %MON advcfl_W_hf_max              =   0.0000000000000E+00
(PID.TID 0000.0001) %MON pe_b_mean                    =   1.6002210072719E-20
(PID.TID 0000.0001) %MON ke_max                       =   1.1312654820837E-16
(PID.TID 0000.0001) %MON ke_mean                      =   1.2144177304375E-17
(PID.TID 0000.0001) %MON ke_vol                       =   7.5645000000000E+15
(PID.TID 0000.0001) %MON vort_r_min                   =  -6.4397707574326E-13
(PID.TID 0000.0001) %MON vort_r_max                   =   4.9158251170753E-13
(PID.TID 0000.0001) %MON vort_a_mean                  =   8.2300000000000E-05
(PID.TID 0000.0001) %MON vort_a_sd                    =   7.1297555115702E-06
(PID.TID 0000.0001) %MON vort_p_mean                  =   8.3303658536585E-05
(PID.TID 0000.0001) %MON vort_p_sd                    =   1.7411470226436E-05
(PID.TID 0000.0001) %MON surfExpan_theta_mean         =  -1.0410507455173E-27
(PID.TID 0000.0001) %MON surfExpan_salt_mean          =  -1.5667402534780E-27
(PID.TID 0000.0001) // =======================================================
(PID.TID 0000.0001) // End MONITOR dynamic field statistics
(PID.TID 0000.0001) // =======================================================
 cg2d: Sum(rhs),rhsMax =  -2.49750229740837E-03  1.62584151190064E-09
 cg2d: Sum(rhs),rhsMax =  -2.49641285838910E-03  1.62655081662400E-09
 cg2d: Sum(rhs),rhsMax =  -2.49538439825318E-03  1.62722098040595E-09
 cg2d: Sum(rhs),rhsMax =  -2.49441771503884E-03  1.62785138627272E-09
 cg2d: Sum(rhs),rhsMax =  -2.49351359951922E-03  1.62844142410743E-09
 cg2d: Sum(rhs),rhsMax =  -2.49267284586001E-03  1.62899049079386E-09
 cg2d: Sum(rhs),rhsMax =  -2.49189622701906E-03  1.62949799036023E-09
 cg2d: Sum(rhs),rhsMax =  -2.49118452802881E-03  1.62996333411952E-09
 cg2d: Sum(rhs),rhsMax =  -2.49053852562224E-03  1.63038594080939E-09
 cg2d: Sum(rhs),rhsMax =  -2.48995895744316E-03  1.63076523616699E-09
 cg2d: Sum(rhs),rhsMax =  -2.48944662790298E-03  1.63110065548612E-09
 cg2d: Sum(rhs),rhsMax =  -2.48900231232101E-03  1.63139163976070E-09
 cg2d: Sum(rhs),rhsMax =  -2.48862677031308E-03  1.63163763898698E-09
 cg2d: Sum(rhs),rhsMax =  -2.48832077899679E-03  1.63183811093173E-09
 cg2d: Sum(rhs),rhsMax =  -2.48808508338638E-03  1.63199252180373E-09
 cg2d: Sum(rhs),rhsMax =  -2.48792045101892E-03  1.63210034598150E-09
(PID.TID 0000.0001)      cg2d_init_res =   1.64098188358082E-01
(PID.TID 0000.0001)      cg2d_iters(min,last) =      -1     543
(PID.TID 0000.0001)      cg2d_last_res =   9.63838471384101E-08
(PID.TID 0000.0001) // =======================================================
(PID.TID 0000.0001) // Begin MONITOR dynamic field statistics
(PID.TID 0000.0001) // =======================================================
(PID.TID 0000.0001) %MON time_tsnumber                =                  1296
(PID.TID 0000.0001) %MON time_secondsf                =   6.9984000000000E+06
(PID.TID 0000.0001) %MON dynstat_eta_max              =   8.3193395319029E-09
(PID.TID 0000.0001) %MON dynstat_eta_min              =  -1.3380390005694E-08
(PID.TID 0000.0001) %MON dynstat_eta_mean             =   3.9131870216182E-13
(PID.TID 0000.0001) %MON dynstat_eta_sd               =   4.0074764844645E-09
(PID.TID 0000.0001) %MON dynstat_eta_del2             =   6.5839016406490E-14
(PID.TID 0000.0001) %MON dynstat_uvel_max             =   9.9468128075226E-09
(PID.TID 0000.0001) %MON dynstat_uvel_min             =  -1.0846535012809E-08
(PID.TID 0000.0001) %MON dynstat_uvel_mean            =   2.9730356747905E-13
(PID.TID 0000.0001) %MON dynstat_uvel_sd              =   3.2252353073005E-09
(PID.TID 0000.0001) %MON dynstat_uvel_del2            =   1.4888288800603E-13
(PID.TID 0000.0001) %MON dynstat_vvel_max             =   9.2395621924487E-09
(PID.TID 0000.0001) %MON dynstat_vvel_min             =  -1.2119800869711E-08
(PID.TID 0000.0001) %MON dynstat_vvel_mean            =  -2.3447590940616E-14
(PID.TID 0000.0001) %MON dynstat_vvel_sd              =   3.6631769016560E-09
(PID.TID 0000.0001) %MON dynstat_vvel_del2            =   2.5714766609297E-13
(PID.TID 0000.0001) %MON dynstat_wvel_max             =   1.8991416160796E-14
(PID.TID 0000.0001) %MON dynstat_wvel_min             =  -1.7955292105354E-14
(PID.TID 0000.0001) %MON dynstat_wvel_mean            =  -2.1463889279444E-28
(PID.TID 0000.0001) %MON dynstat_wvel_sd              =   8.0973197285792E-15
(PID.TID 0000.0001) %MON dynstat_wvel_del2            =   7.0105665808817E-20
(PID.TID 0000.0001) %MON dynstat_theta_max            =   2.0000000000000E+01
(PID.TID 0000.0001) %MON dynstat_theta_min            =   2.0000000000000E+01
(PID.TID 0000.0001) %MON dynstat_theta_mean           =   2.0000000000000E+01
(PID.TID 0000.0001) %MON dynstat_theta_sd             =   0.0000000000000E+00
(PID.TID 0000.0001) %MON dynstat_theta_del2           =   0.0000000000000E+00
(PID.TID 0000.0001) %MON dynstat_salt_max             =   3.0000000000000E+01
(PID.TID 0000.0001) %MON dynstat_salt_min             =   3.0000000000000E+01
(PID.TID 0000.0001) %MON dynstat_salt_mean            =   3.0000000000000E+01
(PID.TID 0000.0001) %MON dynstat_salt_sd              =   0.0000000000000E+00
(PID.TID 0000.0001) %MON dynstat_salt_del2            =   0.0000000000000E+00
(PID.TID 0000.0001) %MON trAdv_CFL_u_max              =   1.1718033573774E-08
(PID.TID 0000.0001) %MON trAdv_CFL_v_max              =   1.3088569165979E-08
(PID.TID 0000.0001) %MON trAdv_CFL_w_max              =   2.0553253084277E-14
(PID.TID 0000.0001) %MON advcfl_uvel_max              =   1.1714257813834E-08
(PID.TID 0000.0001) %MON advcfl_vvel_max              =   1.3089384939288E-08
(PID.TID 0000.0001) %MON advcfl_wvel_max              =   4.1021458907320E-14
(PID.TID 0000.0001) %MON advcfl_W_hf_max              =   0.0000000000000E+00
(PID.TID 0000.0001) %MON pe_b_mean                    =   1.5754730436060E-20
(PID.TID 0000.0001) %MON ke_max                       =   1.0871784668388E-16
(PID.TID 0000.0001) %MON ke_mean                      =   1.1862087261910E-17
(PID.TID 0000.0001) %MON ke_vol                       =   7.5645000000000E+15
(PID.TID 0000.0001) %MON vort_r_min                   =  -6.4825143498329E-13
(PID.TID 0000.0001) %MON vort_r_max                   =   4.5972432822071E-13
(PID.TID 0000.0001) %MON vort_a_mean                  =   8.2300000000000E-05
(PID.TID 0000.0001) %MON vort_a_sd                    =   7.1297555115482E-06
(PID.TID 0000.0001) %MON vort_p_mean                  =   8.3303658536586E-05
(PID.TID 0000.0001) %MON vort_p_sd                    =   1.7411470226593E-05
(PID.TID 0000.0001) %MON surfExpan_theta_mean         =  -4.2137305308695E-27
(PID.TID 0000.0001) %MON surfExpan_salt_mean          =  -6.3044624752598E-27
(PID.TID 0000.0001) // =======================================================
(PID.TID 0000.0001) // End MONITOR dynamic field statistics
(PID.TID 0000.0001) // =======================================================
 cg2d: Sum(rhs),rhsMax =  -2.48782764565309E-03  1.63216106651730E-09
 cg2d: Sum(rhs),rhsMax =  -2.48780742132954E-03  1.63217417485795E-09
 cg2d: Sum(rhs),rhsMax =  -2.48786054647646E-03  1.63213917138831E-09
 cg2d: Sum(rhs),rhsMax =  -2.48798776421760E-03  1.63205556511716E-09
 cg2d: Sum(rhs),rhsMax =  -2.48818985064781E-03  1.63192287423978E-09
 cg2d: Sum(rhs),rhsMax =  -2.48846746691631E-03  1.63174062512654E-09
 cg2d: Sum(rhs),rhsMax =  -2.48882146490267E-03  1.63150835584019E-09
 cg2d: Sum(rhs),rhsMax =  -2.48925259539600E-03  1.63122561089754E-09
 cg2d: Sum(rhs),rhsMax =  -2.48976158518286E-03  1.63089194627481E-09
 cg2d: Sum(rhs),rhsMax =  -2.49034923486189E-03  1.63050692506328E-09
 cg2d: Sum(rhs),rhsMax =  -2.49101629593268E-03  1.63007012221141E-09
 cg2d: Sum(rhs),rhsMax =  -2.49176354179362E-03  1.62958112165705E-09
 cg2d: Sum(rhs),rhsMax =  -2.49259172988937E-03  1.62903951714335E-09
 cg2d: Sum(rhs),rhsMax =  -2.49350163693612E-03  1.62844491238688E-09
 cg2d: Sum(rhs),rhsMax =  -2.49449402543040E-03  1.62779692110289E-09
 cg2d: Sum(rhs),rhsMax =  -2.49556967211684E-03  1.62709516714938E-09
(PID.TID 0000.0001)      cg2d_init_res =   1.61179400639681E-01
(PID.TID 0000.0001)      cg2d_iters(min,last) =      -1     540
(PID.TID 0000.0001)      cg2d_last_res =   8.74310326301072E-08
(PID.TID 0000.0001) // =======================================================
(PID.TID 0000.0001) // Begin MONITOR dynamic field statistics
(PID.TID 0000.0001) // =======================================================
(PID.TID 0000.0001) %MON time_tsnumber                =                  1312
(PID.TID 0000.0001) %MON time_secondsf                =   7.0848000000000E+06
(PID.TID 0000.0001) %MON dynstat_eta_max              =   7.2847022412980E-09
(PID.TID 0000.0001) %MON dynstat_eta_min              =  -1.3712858765679E-08
(PID.TID 0000.0001) %MON dynstat_eta_mean             =   3.9131808415231E-13
(PID.TID 0000.0001) %MON dynstat_eta_sd               =   3.9729536163590E-09
(PID.TID 0000.0001) %MON dynstat_eta_del2             =   6.5173787044749E-14
(PID.TID 0000.0001) %MON dynstat_uvel_max             =   9.6310930907182E-09
(PID.TID 0000.0001) %MON dynstat_uvel_min             =  -1.0772875041680E-08
(PID.TID 0000.0001) %MON dynstat_uvel_mean            =   2.3378301321061E-13
(PID.TID 0000.0001) %MON dynstat_uvel_sd              =   3.1451776134104E-09
(PID.TID 0000.0001) %MON dynstat_uvel_del2            =   1.4557115818564E-13
(PID.TID 0000.0001) %MON dynstat_vvel_max             =   8.7329999697606E-09
(PID.TID 0000.0001) %MON dynstat_vvel_min             =  -1.2113658747996E-08
(PID.TID 0000.0001) %MON dynstat_vvel_mean            =  -3.2812770662096E-14
(PID.TID 0000.0001) %MON dynstat_vvel_sd              =   3.6567553159702E-09
(PID.TID 0000.0001) %MON dynstat_vvel_del2            =   2.5680164563318E-13
(PID.TID 0000.0001) %MON dynstat_wvel_max             =   1.8128348174828E-14
(PID.TID 0000.0001) %MON dynstat_wvel_min             =  -1.6000959429663E-14
(PID.TID 0000.0001) %MON dynstat_wvel_mean            =  -5.8267715009769E-30
(PID.TID 0000.0001) %MON dynstat_wvel_sd              =   8.0278592477364E-15
(PID.TID 0000.0001) %MON dynstat_wvel_del2            =   6.8729771504954E-20
(PID.TID 0000.0001) %MON dynstat_theta_max            =   2.0000000000000E+01
(PID.TID 0000.0001) %MON dynstat_theta_min            =   2.0000000000000E+01
(PID.TID 0000.0001) %MON dynstat_theta_mean           =   2.0000000000000E+01
(PID.TID 0000.0001) %MON dynstat_theta_sd             =   0.0000000000000E+00
(PID.TID 0000.0001) %MON dynstat_theta_del2           =   0.0000000000000E+00
(PID.TID 0000.0001) %MON dynstat_salt_max             =   3.0000000000000E+01
(PID.TID 0000.0001) %MON dynstat_salt_min             =   3.0000000000000E+01
(PID.TID 0000.0001) %MON dynstat_salt_mean            =   3.0000000000000E+01
(PID.TID 0000.0001) %MON dynstat_salt_sd              =   0.0000000000000E+00
(PID.TID 0000.0001) %MON dynstat_salt_del2            =   0.0000000000000E+00
(PID.TID 0000.0001) %MON trAdv_CFL_u_max              =   1.1640817996325E-08
(PID.TID 0000.0001) %MON trAdv_CFL_v_max              =   1.3084902491198E-08
(PID.TID 0000.0001) %MON trAdv_CFL_w_max              =   1.9647969212011E-14
(PID.TID 0000.0001) %MON advcfl_uvel_max              =   1.1634705045014E-08
(PID.TID 0000.0001) %MON advcfl_vvel_max              =   1.3082751447836E-08
(PID.TID 0000.0001) %MON advcfl_wvel_max              =   3.9157232057629E-14
(PID.TID 0000.0001) %MON advcfl_W_hf_max              =   0.0000000000000E+00
(PID.TID 0000.0001) %MON pe_b_mean                    =   1.5484457739643E-20
(PID.TID 0000.0001) %MON ke_max                       =   1.0282462846226E-16
(PID.TID 0000.0001) %MON ke_mean                      =   1.1584716301918E-17
(PID.TID 0000.0001) %MON ke_vol                       =   7.5645000000000E+15
(PID.TID 0000.0001) %MON vort_r_min                   =  -6.4841725490489E-13
(PID.TID 0000.0001) %MON vort_r_max                   =   4.3350421539537E-13
(PID.TID 0000.0001) %MON vort_a_mean                  =   8.2299999999999E-05
(PID.TID 0000.0001) %MON vort_a_sd                    =   7.1297555115723E-06
(PID.TID 0000.0001) %MON vort_p_mean                  =   8.3303658536584E-05
(PID.TID 0000.0001) %MON vort_p_sd                    =   1.7411470226785E-05
(PID.TID 0000.0001) %MON surfExpan_theta_mean         =   4.5750640701852E-29
(PID.TID 0000.0001) %MON surfExpan_salt_mean          =   2.2089257651511E-29
(PID.TID 0000.0001) // =======================================================
(PID.TID 0000.0001) // End MONITOR dynamic field statistics
(PID.TID 0000.0001) // =======================================================
 cg2d: Sum(rhs),rhsMax =  -2.49672934065149E-03  1.62633928458840E-09
 cg2d: Sum(rhs),rhsMax =  -2.49797382409169E-03  1.62552891779708E-09
 cg2d: Sum(rhs),rhsMax =  -2.49930389333226E-03  1.62466372154436E-09
 cg2d: Sum(rhs),rhsMax =  -2.50072031339191E-03  1.62374336239809E-09
 cg2d: Sum(rhs),rhsMax =  -2.50222389768526E-03  1.62276751346835E-09
 cg2d: Sum(rhs),rhsMax =  -2.50381544941238E-03  1.62173586261516E-09
 cg2d: Sum(rhs),rhsMax =  -2.50549578310798E-03  1.62064810567246E-09
 cg2d: Sum(rhs),rhsMax =  -2.50726568743206E-03  1.61950395332781E-09
 cg2d: Sum(rhs),rhsMax =  -2.50912596854015E-03  1.61830312298145E-09
 cg2d: Sum(rhs),rhsMax =  -2.51107744152469E-03  1.61704534445756E-09
 cg2d: Sum(rhs),rhsMax =  -2.51312093273435E-03  1.61573035853270E-09
 cg2d: Sum(rhs),rhsMax =  -2.51525727170045E-03  1.61435791709618E-09
 cg2d: Sum(rhs),rhsMax =  -2.51748729445122E-03  1.61292778315687E-09
 cg2d: Sum(rhs),rhsMax =  -2.51981184008542E-03  1.61143973094379E-09
 cg2d: Sum(rhs),rhsMax =  -2.52223175662105E-03  1.60989354594934E-09
 cg2d: Sum(rhs),rhsMax =  -2.52474787950337E-03  1.60828902623350E-09
(PID.TID 0000.0001)      cg2d_init_res =   1.59868637331589E-01
(PID.TID 0000.0001)      cg2d_iters(min,last) =      -1     539
(PID.TID 0000.0001)      cg2d_last_res =   9.93422481431483E-08
(PID.TID 0000.0001) // =======================================================
(PID.TID 0000.0001) // Begin MONITOR dynamic field statistics
(PID.TID 0000.0001) // =======================================================
(PID.TID 0000.0001) %MON time_tsnumber                =                  1328
(PID.TID 0000.0001) %MON time_secondsf                =   7.1712000000000E+06
(PID.TID 0000.0001) %MON dynstat_eta_max              =   7.4308180573804E-09
(PID.TID 0000.0001) %MON dynstat_eta_min              =  -1.3797874847199E-08
(PID.TID 0000.0001) %MON dynstat_eta_mean             =   3.9131760119682E-13
(PID.TID 0000.0001) %MON dynstat_eta_sd               =   3.9339577292779E-09
(PID.TID 0000.0001) %MON dynstat_eta_del2             =   6.4507486905544E-14
(PID.TID 0000.0001) %MON dynstat_uvel_max             =   9.3368945424133E-09
(PID.TID 0000.0001) %MON dynstat_uvel_min             =  -1.0676853178593E-08
(PID.TID 0000.0001) %MON dynstat_uvel_mean            =   1.5901271929140E-13
(PID.TID 0000.0001) %MON dynstat_uvel_sd              =   3.0651394753871E-09
(PID.TID 0000.0001) %MON dynstat_uvel_del2            =   1.4327353791195E-13
(PID.TID 0000.0001) %MON dynstat_vvel_max             =   8.3196248254897E-09
(PID.TID 0000.0001) %MON dynstat_vvel_min             =  -1.2042877760563E-08
(PID.TID 0000.0001) %MON dynstat_vvel_mean            =  -4.0668552841489E-14
(PID.TID 0000.0001) %MON dynstat_vvel_sd              =   3.6498641072117E-09
(PID.TID 0000.0001) %MON dynstat_vvel_del2            =   2.5547453106205E-13
(PID.TID 0000.0001) %MON dynstat_wvel_max             =   1.6985252796475E-14
(PID.TID 0000.0001) %MON dynstat_wvel_min             =  -1.3857305211085E-14
(PID.TID 0000.0001) %MON dynstat_wvel_mean            =  -4.6073509931396E-28
(PID.TID 0000.0001) %MON dynstat_wvel_sd              =   7.9746133077119E-15
(PID.TID 0000.0001) %MON dynstat_wvel_del2            =   6.7461889902399E-20
(PID.TID 0000.0001) %MON dynstat_theta_max            =   2.0000000000000E+01
(PID.TID 0000.0001) %MON dynstat_theta_min            =   2.0000000000000E+01
(PID.TID 0000.0001) %MON dynstat_theta_mean           =   2.0000000000000E+01
(PID.TID 0000.0001) %MON dynstat_theta_sd             =   0.0000000000000E+00
(PID.TID 0000.0001) %MON dynstat_theta_del2           =   0.0000000000000E+00
(PID.TID 0000.0001) %MON dynstat_salt_max             =   3.0000000000000E+01
(PID.TID 0000.0001) %MON dynstat_salt_min             =   3.0000000000000E+01
(PID.TID 0000.0001) %MON dynstat_salt_mean            =   3.0000000000000E+01
(PID.TID 0000.0001) %MON dynstat_salt_sd              =   0.0000000000000E+00
(PID.TID 0000.0001) %MON dynstat_salt_del2            =   0.0000000000000E+00
(PID.TID 0000.0001) %MON trAdv_CFL_u_max              =   1.1538240240760E-08
(PID.TID 0000.0001) %MON trAdv_CFL_v_max              =   1.3013543039274E-08
(PID.TID 0000.0001) %MON trAdv_CFL_w_max              =   1.8352296542457E-14
(PID.TID 0000.0001) %MON advcfl_uvel_max              =   1.1531001432880E-08
(PID.TID 0000.0001) %MON advcfl_vvel_max              =   1.3006307981408E-08
(PID.TID 0000.0001) %MON advcfl_wvel_max              =   3.6688146040387E-14
(PID.TID 0000.0001) %MON advcfl_W_hf_max              =   0.0000000000000E+00
(PID.TID 0000.0001) %MON pe_b_mean                    =   1.5181979121066E-20
(PID.TID 0000.0001) %MON ke_max                       =   9.5708950622228E-17
(PID.TID 0000.0001) %MON ke_mean                      =   1.1312122088920E-17
(PID.TID 0000.0001) %MON ke_vol                       =   7.5645000000000E+15
(PID.TID 0000.0001) %MON vort_r_min                   =  -6.4642000051317E-13
(PID.TID 0000.0001) %MON vort_r_max                   =   4.1480301913561E-13
(PID.TID 0000.0001) %MON vort_a_mean                  =   8.2300000000000E-05
(PID.TID 0000.0001) %MON vort_a_sd                    =   7.1297555115668E-06
(PID.TID 0000.0001) %MON vort_p_mean                  =   8.3303658536585E-05
(PID.TID 0000.0001) %MON vort_p_sd                    =   1.7411470226975E-05
(PID.TID 0000.0001) %MON surfExpan_theta_mean         =  -9.0063539693925E-27
(PID.TID 0000.0001) %MON surfExpan_salt_mean          =  -1.3530161880675E-26
(PID.TID 0000.0001) // =======================================================
(PID.TID 0000.0001) // End MONITOR dynamic field statistics
(PID.TID 0000.0001) // =======================================================
 cg2d: Sum(rhs),rhsMax =  -2.52736110072692E-03  1.60662597747119E-09
 cg2d: Sum(rhs),rhsMax =  -2.53007228711631E-03  1.60490422056542E-09
 cg2d: Sum(rhs),rhsMax =  -2.53288104574210E-03  1.60312439063535E-09
 cg2d: Sum(rhs),rhsMax =  -2.53571284745896E-03  1.60133395637254E-09
 cg2d: Sum(rhs),rhsMax =  -2.53864321019105E-03  1.59948541789295E-09
 cg2d: Sum(rhs),rhsMax =  -2.54167297725880E-03  1.59757864455046E-09
 cg2d: Sum(rhs),rhsMax =  -2.54480302671916E-03  1.59561351800635E-09
 cg2d: Sum(rhs),rhsMax =  -2.54803427484006E-03  1.59358993079317E-09
 cg2d: Sum(rhs),rhsMax =  -2.55136761266297E-03  1.59150778646051E-09
 cg2d: Sum(rhs),rhsMax =  -2.55480395610427E-03  1.58936700090666E-09
 cg2d: Sum(rhs),rhsMax =  -2.55834420957454E-03  1.58716750127076E-09
 cg2d: Sum(rhs),rhsMax =  -2.56198930151798E-03  1.58490922640250E-09
 cg2d: Sum(rhs),rhsMax =  -2.55789158943888E-03  1.58744811932916E-09
 cg2d: Sum(rhs),rhsMax =  -2.55097806957410E-03  1.59175022430132E-09
 cg2d: Sum(rhs),rhsMax =  -2.54427630956187E-03  1.59594285873207E-09
 cg2d: Sum(rhs),rhsMax =  -2.53778374877405E-03  1.60002574036898E-09
(PID.TID 0000.0001)      cg2d_init_res =   1.58011391771464E-01
(PID.TID 0000.0001)      cg2d_iters(min,last) =      -1     536
(PID.TID 0000.0001)      cg2d_last_res =   9.23001209109525E-08
(PID.TID 0000.0001) // =======================================================
(PID.TID 0000.0001) // Begin MONITOR dynamic field statistics
(PID.TID 0000.0001) // =======================================================
(PID.TID 0000.0001) %MON time_tsnumber                =                  1344
(PID.TID 0000.0001) %MON time_secondsf                =   7.2576000000000E+06
(PID.TID 0000.0001) %MON dynstat_eta_max              =   7.7300189328711E-09
(PID.TID 0000.0001) %MON dynstat_eta_min              =  -1.3634132756442E-08
(PID.TID 0000.0001) %MON dynstat_eta_mean             =   3.9131712434227E-13
(PID.TID 0000.0001) %MON dynstat_eta_sd               =   3.8900742746527E-09
(PID.TID 0000.0001) %MON dynstat_eta_del2             =   6.3818343112032E-14
(PID.TID 0000.0001) %MON dynstat_uvel_max             =   9.0775130290558E-09
(PID.TID 0000.0001) %MON dynstat_uvel_min             =  -1.0566632836580E-08
(PID.TID 0000.0001) %MON dynstat_uvel_mean            =   7.7090899391295E-14
(PID.TID 0000.0001) %MON dynstat_uvel_sd              =   2.9897581058048E-09
(PID.TID 0000.0001) %MON dynstat_uvel_del2            =   1.4173842669088E-13
(PID.TID 0000.0001) %MON dynstat_vvel_max             =   8.4898048282552E-09
(PID.TID 0000.0001) %MON dynstat_vvel_min             =  -1.1900882649711E-08
(PID.TID 0000.0001) %MON dynstat_vvel_mean            =  -4.6812068161837E-14
(PID.TID 0000.0001) %MON dynstat_vvel_sd              =   3.6387656870437E-09
(PID.TID 0000.0001) %MON dynstat_vvel_del2            =   2.5334422838259E-13
(PID.TID 0000.0001) %MON dynstat_wvel_max             =   1.9094646603879E-14
(PID.TID 0000.0001) %MON dynstat_wvel_min             =  -1.1855351759182E-14
(PID.TID 0000.0001) %MON dynstat_wvel_mean            =  -2.2098969892864E-28
(PID.TID 0000.0001) %MON dynstat_wvel_sd              =   7.9394477732012E-15
(PID.TID 0000.0001) %MON dynstat_wvel_del2            =   6.6166281389298E-20
(PID.TID 0000.0001) %MON dynstat_theta_max            =   2.0000000000000E+01
(PID.TID 0000.0001) %MON dynstat_theta_min            =   2.0000000000000E+01
(PID.TID 0000.0001) %MON dynstat_theta_mean           =   2.0000000000000E+01
(PID.TID 0000.0001) %MON dynstat_theta_sd             =   0.0000000000000E+00
(PID.TID 0000.0001) %MON dynstat_theta_del2           =   0.0000000000000E+00
(PID.TID 0000.0001) %MON dynstat_salt_max             =   3.0000000000000E+01
(PID.TID 0000.0001) %MON dynstat_salt_min             =   3.0000000000000E+01
(PID.TID 0000.0001) %MON dynstat_salt_mean            =   3.0000000000000E+01
(PID.TID 0000.0001) %MON dynstat_salt_sd              =   0.0000000000000E+00
(PID.TID 0000.0001) %MON dynstat_salt_del2            =   0.0000000000000E+00
(PID.TID 0000.0001) %MON trAdv_CFL_u_max              =   1.1419747632950E-08
(PID.TID 0000.0001) %MON trAdv_CFL_v_max              =   1.2855233686106E-08
(PID.TID 0000.0001) %MON trAdv_CFL_w_max              =   2.0492119211113E-14
(PID.TID 0000.0001) %MON advcfl_uvel_max              =   1.1411963463506E-08
(PID.TID 0000.0001) %MON advcfl_vvel_max              =   1.2852953261688E-08
(PID.TID 0000.0001) %MON advcfl_wvel_max              =   4.1244436664378E-14
(PID.TID 0000.0001) %MON advcfl_W_hf_max              =   0.0000000000000E+00
(PID.TID 0000.0001) %MON pe_b_mean                    =   1.4845157133150E-20
(PID.TID 0000.0001) %MON ke_max                       =   8.7996413225716E-17
(PID.TID 0000.0001) %MON ke_mean                      =   1.1044554816705E-17
(PID.TID 0000.0001) %MON ke_vol                       =   7.5645000000000E+15
(PID.TID 0000.0001) %MON vort_r_min                   =  -6.8836955630868E-13
(PID.TID 0000.0001) %MON vort_r_max                   =   4.0480447346118E-13
(PID.TID 0000.0001) %MON vort_a_mean                  =   8.2299999999999E-05
(PID.TID 0000.0001) %MON vort_a_sd                    =   7.1297555115678E-06
(PID.TID 0000.0001) %MON vort_p_mean                  =   8.3303658536585E-05
(PID.TID 0000.0001) %MON vort_p_sd                    =   1.7411470227180E-05
(PID.TID 0000.0001) %MON surfExpan_theta_mean         =  -4.3355996426490E-27
(PID.TID 0000.0001) %MON surfExpan_salt_mean          =  -6.5865206955416E-27
(PID.TID 0000.0001) // =======================================================
(PID.TID 0000.0001) // End MONITOR dynamic field statistics
(PID.TID 0000.0001) // =======================================================
 cg2d: Sum(rhs),rhsMax =  -2.53149786593208E-03  1.60399860630230E-09
 cg2d: Sum(rhs),rhsMax =  -2.52541622277110E-03  1.60786121303322E-09
 cg2d: Sum(rhs),rhsMax =  -2.51953644909957E-03  1.61161333651290E-09
 cg2d: Sum(rhs),rhsMax =  -2.51385623612646E-03  1.61525477269967E-09
 cg2d: Sum(rhs),rhsMax =  -2.50837332630424E-03  1.61878533599486E-09
 cg2d: Sum(rhs),rhsMax =  -2.50308559709115E-03  1.62220485958291E-09
 cg2d: Sum(rhs),rhsMax =  -2.49799097628168E-03  1.62551319865498E-09
 cg2d: Sum(rhs),rhsMax =  -2.49308744430418E-03  1.62871022647499E-09
 cg2d: Sum(rhs),rhsMax =  -2.48837301144167E-03  1.63179583597776E-09
 cg2d: Sum(rhs),rhsMax =  -2.48384579863032E-03  1.63476993904403E-09
 cg2d: Sum(rhs),rhsMax =  -2.47950396068799E-03  1.63763246812475E-09
 cg2d: Sum(rhs),rhsMax =  -2.47530844128615E-03  1.64040807845405E-09
 cg2d: Sum(rhs),rhsMax =  -2.47126362146025E-03  1.64309290504324E-09
 cg2d: Sum(rhs),rhsMax =  -2.46740012616001E-03  1.64566559594176E-09
 cg2d: Sum(rhs),rhsMax =  -2.46371629776330E-03  1.64812616152878E-09
 cg2d: Sum(rhs),rhsMax =  -2.46021052394458E-03  1.65047463038600E-09
(PID.TID 0000.0001)      cg2d_init_res =   1.51251448523926E-01
(PID.TID 0000.0001)      cg2d_iters(min,last) =      -1     529
(PID.TID 0000.0001)      cg2d_last_res =   9.82718977991110E-08
(PID.TID 0000.0001) // =======================================================
(PID.TID 0000.0001) // Begin MONITOR dynamic field statistics
(PID.TID 0000.0001) // =======================================================
(PID.TID 0000.0001) %MON time_tsnumber                =                  1360
(PID.TID 0000.0001) %MON time_secondsf                =   7.3440000000000E+06
(PID.TID 0000.0001) %MON dynstat_eta_max              =   7.8540814822079E-09
(PID.TID 0000.0001) %MON dynstat_eta_min              =  -1.3235984500897E-08
(PID.TID 0000.0001) %MON dynstat_eta_mean             =   3.9131671732254E-13
(PID.TID 0000.0001) %MON dynstat_eta_sd               =   3.8419176279722E-09
(PID.TID 0000.0001) %MON dynstat_eta_del2             =   6.3088703575953E-14
(PID.TID 0000.0001) %MON dynstat_uvel_max             =   8.8411938908253E-09
(PID.TID 0000.0001) %MON dynstat_uvel_min             =  -1.0456134062498E-08
(PID.TID 0000.0001) %MON dynstat_uvel_mean            =  -7.5573386511177E-15
(PID.TID 0000.0001) %MON dynstat_uvel_sd              =   2.9228112935995E-09
(PID.TID 0000.0001) %MON dynstat_uvel_del2            =   1.4054954061156E-13
(PID.TID 0000.0001) %MON dynstat_vvel_max             =   9.1235853493822E-09
(PID.TID 0000.0001) %MON dynstat_vvel_min             =  -1.2650337192586E-08
(PID.TID 0000.0001) %MON dynstat_vvel_mean            =  -5.1114626683661E-14
(PID.TID 0000.0001) %MON dynstat_vvel_sd              =   3.6207695968054E-09
(PID.TID 0000.0001) %MON dynstat_vvel_del2            =   2.5071115360357E-13
(PID.TID 0000.0001) %MON dynstat_wvel_max             =   2.0834688415627E-14
(PID.TID 0000.0001) %MON dynstat_wvel_min             =  -1.0330172888207E-14
(PID.TID 0000.0001) %MON dynstat_wvel_mean            =   1.1660105976040E-28
(PID.TID 0000.0001) %MON dynstat_wvel_sd              =   7.9204438144520E-15
(PID.TID 0000.0001) %MON dynstat_wvel_del2            =   6.5136134296324E-20
(PID.TID 0000.0001) %MON dynstat_theta_max            =   2.0000000000000E+01
(PID.TID 0000.0001) %MON dynstat_theta_min            =   2.0000000000000E+01
(PID.TID 0000.0001) %MON dynstat_theta_mean           =   2.0000000000000E+01
(PID.TID 0000.0001) %MON dynstat_theta_sd             =   0.0000000000000E+00
(PID.TID 0000.0001) %MON dynstat_theta_del2           =   0.0000000000000E+00
(PID.TID 0000.0001) %MON dynstat_salt_max             =   3.0000000000000E+01
(PID.TID 0000.0001) %MON dynstat_salt_min             =   3.0000000000000E+01
(PID.TID 0000.0001) %MON dynstat_salt_mean            =   3.0000000000000E+01
(PID.TID 0000.0001) %MON dynstat_salt_sd              =   0.0000000000000E+00
(PID.TID 0000.0001) %MON dynstat_salt_del2            =   0.0000000000000E+00
(PID.TID 0000.0001) %MON trAdv_CFL_u_max              =   1.1299966984824E-08
(PID.TID 0000.0001) %MON trAdv_CFL_v_max              =   1.3617844549915E-08
(PID.TID 0000.0001) %MON trAdv_CFL_w_max              =   2.2396841399885E-14
(PID.TID 0000.0001) %MON advcfl_uvel_max              =   1.1292624787497E-08
(PID.TID 0000.0001) %MON advcfl_vvel_max              =   1.3662364167993E-08
(PID.TID 0000.0001) %MON advcfl_wvel_max              =   4.5002926977755E-14
(PID.TID 0000.0001) %MON advcfl_W_hf_max              =   0.0000000000000E+00
(PID.TID 0000.0001) %MON pe_b_mean                    =   1.4479884920201E-20
(PID.TID 0000.0001) %MON ke_max                       =   7.9964702220465E-17
(PID.TID 0000.0001) %MON ke_mean                      =   1.0782389414195E-17
(PID.TID 0000.0001) %MON ke_vol                       =   7.5645000000000E+15
(PID.TID 0000.0001) %MON vort_r_min                   =  -7.1857203699316E-13
(PID.TID 0000.0001) %MON vort_r_max                   =   4.0400715463737E-13
(PID.TID 0000.0001) %MON vort_a_mean                  =   8.2300000000000E-05
(PID.TID 0000.0001) %MON vort_a_sd                    =   7.1297555115681E-06
(PID.TID 0000.0001) %MON vort_p_mean                  =   8.3303658536585E-05
(PID.TID 0000.0001) %MON vort_p_sd                    =   1.7411470227385E-05
(PID.TID 0000.0001) %MON surfExpan_theta_mean         =   2.2208533148294E-27
(PID.TID 0000.0001) %MON surfExpan_salt_mean          =   3.3470325791606E-27
(PID.TID 0000.0001) // =======================================================
(PID.TID 0000.0001) // End MONITOR dynamic field statistics
(PID.TID 0000.0001) // =======================================================
 cg2d: Sum(rhs),rhsMax =  -2.45688126900346E-03  1.65271105235430E-09
 cg2d: Sum(rhs),rhsMax =  -2.45372702393340E-03  1.65483549568565E-09
 cg2d: Sum(rhs),rhsMax =  -2.45074636290390E-03  1.65684804700015E-09
 cg2d: Sum(rhs),rhsMax =  -2.44793788761902E-03  1.65874881354470E-09
 cg2d: Sum(rhs),rhsMax =  -2.44530025847764E-03  1.66053792157371E-09
 cg2d: Sum(rhs),rhsMax =  -2.44283217317285E-03  1.66221551664037E-09
 cg2d: Sum(rhs),rhsMax =  -2.44053237412200E-03  1.66378176344736E-09
 cg2d: Sum(rhs),rhsMax =  -2.43839968942818E-03  1.66523684551817E-09
 cg2d: Sum(rhs),rhsMax =  -2.43643292453170E-03  1.66658096636341E-09
 cg2d: Sum(rhs),rhsMax =  -2.43463098363675E-03  1.66781434858654E-09
 cg2d: Sum(rhs),rhsMax =  -2.43299276936670E-03  1.66893723171542E-09
 cg2d: Sum(rhs),rhsMax =  -2.43151724538148E-03  1.66994987607133E-09
 cg2d: Sum(rhs),rhsMax =  -2.43020344096571E-03  1.67085256005470E-09
 cg2d: Sum(rhs),rhsMax =  -2.42905037468788E-03  1.67164558162886E-09
 cg2d: Sum(rhs),rhsMax =  -2.42805713986613E-03  1.67232925667016E-09
 cg2d: Sum(rhs),rhsMax =  -2.42722285495111E-03  1.67290391937144E-09
(PID.TID 0000.0001)      cg2d_init_res =   1.48010410083169E-01
(PID.TID 0000.0001)      cg2d_iters(min,last) =      -1     532
(PID.TID 0000.0001)      cg2d_last_res =   9.21017408047193E-08
(PID.TID 0000.0001) // =======================================================
(PID.TID 0000.0001) // Begin MONITOR dynamic field statistics
(PID.TID 0000.0001) // =======================================================
(PID.TID 0000.0001) %MON time_tsnumber                =                  1376
(PID.TID 0000.0001) %MON time_secondsf                =   7.4304000000000E+06
(PID.TID 0000.0001) %MON dynstat_eta_max              =   7.7972475341495E-09
(PID.TID 0000.0001) %MON dynstat_eta_min              =  -1.2624617605270E-08
(PID.TID 0000.0001) %MON dynstat_eta_mean             =   3.9131627857759E-13
(PID.TID 0000.0001) %MON dynstat_eta_sd               =   3.7910722592155E-09
(PID.TID 0000.0001) %MON dynstat_eta_del2             =   6.2307830517893E-14
(PID.TID 0000.0001) %MON dynstat_uvel_max             =   8.6346024015991E-09
(PID.TID 0000.0001) %MON dynstat_uvel_min             =  -1.0358164989944E-08
(PID.TID 0000.0001) %MON dynstat_uvel_mean            =  -9.0420925077394E-14
(PID.TID 0000.0001) %MON dynstat_uvel_sd              =   2.8664318777671E-09
(PID.TID 0000.0001) %MON dynstat_uvel_del2            =   1.3922304866456E-13
(PID.TID 0000.0001) %MON dynstat_vvel_max             =   9.6916019779528E-09
(PID.TID 0000.0001) %MON dynstat_vvel_min             =  -1.3202767612505E-08
(PID.TID 0000.0001) %MON dynstat_vvel_mean            =  -5.3526235656620E-14
(PID.TID 0000.0001) %MON dynstat_vvel_sd              =   3.5946592212579E-09
(PID.TID 0000.0001) %MON dynstat_vvel_del2            =   2.4794683960228E-13
(PID.TID 0000.0001) %MON dynstat_wvel_max             =   2.2204714071883E-14
(PID.TID 0000.0001) %MON dynstat_wvel_min             =  -1.0625262513164E-14
(PID.TID 0000.0001) %MON dynstat_wvel_mean            =  -1.3299906258284E-27
(PID.TID 0000.0001) %MON dynstat_wvel_sd              =   7.9121143368355E-15
(PID.TID 0000.0001) %MON dynstat_wvel_del2            =   6.4212049047191E-20
(PID.TID 0000.0001) %MON dynstat_theta_max            =   2.0000000000000E+01
(PID.TID 0000.0001) %MON dynstat_theta_min            =   2.0000000000000E+01
(PID.TID 0000.0001) %MON dynstat_theta_mean           =   2.0000000000000E+01
(PID.TID 0000.0001) %MON dynstat_theta_sd             =   0.0000000000000E+00
(PID.TID 0000.0001) %MON dynstat_theta_del2           =   0.0000000000000E+00
(PID.TID 0000.0001) %MON dynstat_salt_max             =   3.0000000000000E+01
(PID.TID 0000.0001) %MON dynstat_salt_min             =   3.0000000000000E+01
(PID.TID 0000.0001) %MON dynstat_salt_mean            =   3.0000000000000E+01
(PID.TID 0000.0001) %MON dynstat_salt_sd              =   0.0000000000000E+00
(PID.TID 0000.0001) %MON dynstat_salt_del2            =   0.0000000000000E+00
(PID.TID 0000.0001) %MON trAdv_CFL_u_max              =   1.1193235557020E-08
(PID.TID 0000.0001) %MON trAdv_CFL_v_max              =   1.4228190398975E-08
(PID.TID 0000.0001) %MON trAdv_CFL_w_max              =   2.3898321000138E-14
(PID.TID 0000.0001) %MON advcfl_uvel_max              =   1.1186818189139E-08
(PID.TID 0000.0001) %MON advcfl_vvel_max              =   1.4258989021505E-08
(PID.TID 0000.0001) %MON advcfl_wvel_max              =   4.7962182395267E-14
(PID.TID 0000.0001) %MON advcfl_W_hf_max              =   0.0000000000000E+00
(PID.TID 0000.0001) %MON pe_b_mean                    =   1.4099156676195E-20
(PID.TID 0000.0001) %MON ke_max                       =   8.7137901367345E-17
(PID.TID 0000.0001) %MON ke_mean                      =   1.0526039890822E-17
(PID.TID 0000.0001) %MON ke_vol                       =   7.5645000000000E+15
(PID.TID 0000.0001) %MON vort_r_min                   =  -7.3650399297979E-13
(PID.TID 0000.0001) %MON vort_r_max                   =   4.1291865660391E-13
(PID.TID 0000.0001) %MON vort_a_mean                  =   8.2299999999999E-05
(PID.TID 0000.0001) %MON vort_a_sd                    =   7.1297555115714E-06
(PID.TID 0000.0001) %MON vort_p_mean                  =   8.3303658536584E-05
(PID.TID 0000.0001) %MON vort_p_sd                    =   1.7411470227591E-05
(PID.TID 0000.0001) %MON surfExpan_theta_mean         =  -2.6560875534529E-26
(PID.TID 0000.0001) %MON surfExpan_salt_mean          =  -3.9821516447079E-26
(PID.TID 0000.0001) // =======================================================
(PID.TID 0000.0001) // End MONITOR dynamic field statistics
(PID.TID 0000.0001) // =======================================================
 cg2d: Sum(rhs),rhsMax =  -2.42654670346379E-03  1.67336992321351E-09
 cg2d: Sum(rhs),rhsMax =  -2.42602786599955E-03  1.67372763947681E-09
 cg2d: Sum(rhs),rhsMax =  -2.42566556881559E-03  1.67397745751772E-09
 cg2d: Sum(rhs),rhsMax =  -2.42545917191405E-03  1.67411978506657E-09
 cg2d: Sum(rhs),rhsMax =  -2.42540788895564E-03  1.67415504920653E-09
 cg2d: Sum(rhs),rhsMax =  -2.42551109684042E-03  1.67408369185025E-09
 cg2d: Sum(rhs),rhsMax =  -2.42576812988018E-03  1.67390617677942E-09
 cg2d: Sum(rhs),rhsMax =  -2.42617840374623E-03  1.67362298224369E-09
 cg2d: Sum(rhs),rhsMax =  -2.42674134647202E-03  1.67323460550806E-09
 cg2d: Sum(rhs),rhsMax =  -2.42745642542943E-03  1.67274156105468E-09
 cg2d: Sum(rhs),rhsMax =  -2.42832315709243E-03  1.67214438057291E-09
 cg2d: Sum(rhs),rhsMax =  -2.42934105256120E-03  1.67144361360927E-09
 cg2d: Sum(rhs),rhsMax =  -2.43050966246148E-03  1.67063982621503E-09
 cg2d: Sum(rhs),rhsMax =  -2.43182860374608E-03  1.66973360165063E-09
 cg2d: Sum(rhs),rhsMax =  -2.43329749028463E-03  1.66872553914636E-09
 cg2d: Sum(rhs),rhsMax =  -2.43491592707128E-03  1.66761625633671E-09
(PID.TID 0000.0001)      cg2d_init_res =   1.47851988893062E-01
(PID.TID 0000.0001)      cg2d_iters(min,last) =      -1     539
(PID.TID 0000.0001)      cg2d_last_res =   9.69903275024267E-08
(PID.TID 0000.0001) // =======================================================
(PID.TID 0000.0001) // Begin MONITOR dynamic field statistics
(PID.TID 0000.0001) // =======================================================
(PID.TID 0000.0001) %MON time_tsnumber                =                  1392
(PID.TID 0000.0001) %MON time_secondsf                =   7.5168000000000E+06
(PID.TID 0000.0001) %MON dynstat_eta_max              =   7.5653183252454E-09
(PID.TID 0000.0001) %MON dynstat_eta_min              =  -1.1846544958708E-08
(PID.TID 0000.0001) %MON dynstat_eta_mean             =   3.9131577937979E-13
(PID.TID 0000.0001) %MON dynstat_eta_sd               =   3.7398296568844E-09
(PID.TID 0000.0001) %MON dynstat_eta_del2             =   6.1473723859956E-14
(PID.TID 0000.0001) %MON dynstat_uvel_max             =   8.4601211150959E-09
(PID.TID 0000.0001) %MON dynstat_uvel_min             =  -1.0268833277996E-08
(PID.TID 0000.0001) %MON dynstat_uvel_mean            =  -1.6714731757518E-13
(PID.TID 0000.0001) %MON dynstat_uvel_sd              =   2.8206489823972E-09
(PID.TID 0000.0001) %MON dynstat_uvel_del2            =   1.3730926800122E-13
(PID.TID 0000.0001) %MON dynstat_vvel_max             =   1.0152048880682E-08
(PID.TID 0000.0001) %MON dynstat_vvel_min             =  -1.3550010282292E-08
(PID.TID 0000.0001) %MON dynstat_vvel_mean            =  -5.4076130938234E-14
(PID.TID 0000.0001) %MON dynstat_vvel_sd              =   3.5608375216602E-09
(PID.TID 0000.0001) %MON dynstat_vvel_del2            =   2.4542871973977E-13
(PID.TID 0000.0001) %MON dynstat_wvel_max             =   2.3208745435488E-14
(PID.TID 0000.0001) %MON dynstat_wvel_min             =  -1.1203579504682E-14
(PID.TID 0000.0001) %MON dynstat_wvel_mean            =   7.1007266112871E-28
(PID.TID 0000.0001) %MON dynstat_wvel_sd              =   7.9064660087827E-15
(PID.TID 0000.0001) %MON dynstat_wvel_del2            =   6.3632042670559E-20
(PID.TID 0000.0001) %MON dynstat_theta_max            =   2.0000000000000E+01
(PID.TID 0000.0001) %MON dynstat_theta_min            =   2.0000000000000E+01
(PID.TID 0000.0001) %MON dynstat_theta_mean           =   2.0000000000000E+01
(PID.TID 0000.0001) %MON dynstat_theta_sd             =   0.0000000000000E+00
(PID.TID 0000.0001) %MON dynstat_theta_del2           =   0.0000000000000E+00
(PID.TID 0000.0001) %MON dynstat_salt_max             =   3.0000000000000E+01
(PID.TID 0000.0001) %MON dynstat_salt_min             =   3.0000000000000E+01
(PID.TID 0000.0001) %MON dynstat_salt_mean            =   3.0000000000000E+01
(PID.TID 0000.0001) %MON dynstat_salt_sd              =   0.0000000000000E+00
(PID.TID 0000.0001) %MON dynstat_salt_del2            =   0.0000000000000E+00
(PID.TID 0000.0001) %MON trAdv_CFL_u_max              =   1.1097030804348E-08
(PID.TID 0000.0001) %MON trAdv_CFL_v_max              =   1.4617020711599E-08
(PID.TID 0000.0001) %MON trAdv_CFL_w_max              =   2.5010478658105E-14
(PID.TID 0000.0001) %MON advcfl_uvel_max              =   1.1090339940236E-08
(PID.TID 0000.0001) %MON advcfl_vvel_max              =   1.4634011104875E-08
(PID.TID 0000.0001) %MON advcfl_wvel_max              =   5.0130890140654E-14
(PID.TID 0000.0001) %MON advcfl_W_hf_max              =   0.0000000000000E+00
(PID.TID 0000.0001) %MON pe_b_mean                    =   1.3720585821343E-20
(PID.TID 0000.0001) %MON ke_max                       =   9.1787859629767E-17
(PID.TID 0000.0001) %MON ke_mean                      =   1.0275869957853E-17
(PID.TID 0000.0001) %MON ke_vol                       =   7.5645000000000E+15
(PID.TID 0000.0001) %MON vort_r_min                   =  -7.4218721598609E-13
(PID.TID 0000.0001) %MON vort_r_max                   =   4.3108205030067E-13
(PID.TID 0000.0001) %MON vort_a_mean                  =   8.2300000000000E-05
(PID.TID 0000.0001) %MON vort_a_sd                    =   7.1297555115588E-06
(PID.TID 0000.0001) %MON vort_p_mean                  =   8.3303658536585E-05
(PID.TID 0000.0001) %MON vort_p_sd                    =   1.7411470227784E-05
(PID.TID 0000.0001) %MON surfExpan_theta_mean         =   1.3875345862608E-26
(PID.TID 0000.0001) %MON surfExpan_salt_mean          =   2.0653934036318E-26
(PID.TID 0000.0001) // =======================================================
(PID.TID 0000.0001) // End MONITOR dynamic field statistics
(PID.TID 0000.0001) // =======================================================
 cg2d: Sum(rhs),rhsMax =  -2.43668358894417E-03  1.66640638572043E-09
 cg2d: Sum(rhs),rhsMax =  -2.43860017392295E-03  1.66509657729233E-09
 cg2d: Sum(rhs),rhsMax =  -2.44066540171359E-03  1.66368749646112E-09
 cg2d: Sum(rhs),rhsMax =  -2.44287903738252E-03  1.66217982597602E-09
 cg2d: Sum(rhs),rhsMax =  -2.44524083071245E-03  1.66057426219837E-09
 cg2d: Sum(rhs),rhsMax =  -2.44775057704020E-03  1.65887151923648E-09
 cg2d: Sum(rhs),rhsMax =  -2.45040809718461E-03  1.65707232616035E-09
 cg2d: Sum(rhs),rhsMax =  -2.45321323351759E-03  1.65517742749703E-09
 cg2d: Sum(rhs),rhsMax =  -2.45616585248310E-03  1.65318758297528E-09
 cg2d: Sum(rhs),rhsMax =  -2.45926584097235E-03  1.65110356739429E-09
 cg2d: Sum(rhs),rhsMax =  -2.46251311159160E-03  1.64892617044595E-09
 cg2d: Sum(rhs),rhsMax =  -2.46590759878296E-03  1.64665619653125E-09
 cg2d: Sum(rhs),rhsMax =  -2.46944924618624E-03  1.64429446458043E-09
 cg2d: Sum(rhs),rhsMax =  -2.47313804306809E-03  1.64184180786634E-09
 cg2d: Sum(rhs),rhsMax =  -2.47697396545032E-03  1.63929907381700E-09
 cg2d: Sum(rhs),rhsMax =  -2.48095703946776E-03  1.63666712382426E-09
(PID.TID 0000.0001)      cg2d_init_res =   1.50390606034799E-01
(PID.TID 0000.0001)      cg2d_iters(min,last) =      -1     540
(PID.TID 0000.0001)      cg2d_last_res =   9.57461824766625E-08
(PID.TID 0000.0001) // =======================================================
(PID.TID 0000.0001) // Begin MONITOR dynamic field statistics
(PID.TID 0000.0001) // =======================================================
(PID.TID 0000.0001) %MON time_tsnumber                =                  1408
(PID.TID 0000.0001) %MON time_secondsf                =   7.6032000000000E+06
(PID.TID 0000.0001) %MON dynstat_eta_max              =   8.0386873625199E-09
(PID.TID 0000.0001) %MON dynstat_eta_min              =  -1.1466135202814E-08
(PID.TID 0000.0001) %MON dynstat_eta_mean             =   3.9131533759623E-13
(PID.TID 0000.0001) %MON dynstat_eta_sd               =   3.6907530425259E-09
(PID.TID 0000.0001) %MON dynstat_eta_del2             =   6.0593696761254E-14
(PID.TID 0000.0001) %MON dynstat_uvel_max             =   8.4293896578512E-09
(PID.TID 0000.0001) %MON dynstat_uvel_min             =  -1.0169322915070E-08
(PID.TID 0000.0001) %MON dynstat_uvel_mean            =  -2.3377395301523E-13
(PID.TID 0000.0001) %MON dynstat_uvel_sd              =   2.7834066671977E-09
(PID.TID 0000.0001) %MON dynstat_uvel_del2            =   1.3447460495684E-13
(PID.TID 0000.0001) %MON dynstat_vvel_max             =   1.0488112772756E-08
(PID.TID 0000.0001) %MON dynstat_vvel_min             =  -1.3691285563062E-08
(PID.TID 0000.0001) %MON dynstat_vvel_mean            =  -5.2869241699650E-14
(PID.TID 0000.0001) %MON dynstat_vvel_sd              =   3.5211888769607E-09
(PID.TID 0000.0001) %MON dynstat_vvel_del2            =   2.4347066530606E-13
(PID.TID 0000.0001) %MON dynstat_wvel_max             =   2.3833976333654E-14
(PID.TID 0000.0001) %MON dynstat_wvel_min             =  -1.1567294787573E-14
(PID.TID 0000.0001) %MON dynstat_wvel_mean            =  -1.5710892257604E-27
(PID.TID 0000.0001) %MON dynstat_wvel_sd              =   7.8946221408457E-15
(PID.TID 0000.0001) %MON dynstat_wvel_del2            =   6.3221213567322E-20
(PID.TID 0000.0001) %MON dynstat_theta_max            =   2.0000000000000E+01
(PID.TID 0000.0001) %MON dynstat_theta_min            =   2.0000000000000E+01
(PID.TID 0000.0001) %MON dynstat_theta_mean           =   2.0000000000000E+01
(PID.TID 0000.0001) %MON dynstat_theta_sd             =   0.0000000000000E+00
(PID.TID 0000.0001) %MON dynstat_theta_del2           =   0.0000000000000E+00
(PID.TID 0000.0001) %MON dynstat_salt_max             =   3.0000000000000E+01
(PID.TID 0000.0001) %MON dynstat_salt_min             =   3.0000000000000E+01
(PID.TID 0000.0001) %MON dynstat_salt_mean            =   3.0000000000000E+01
(PID.TID 0000.0001) %MON dynstat_salt_sd              =   0.0000000000000E+00
(PID.TID 0000.0001) %MON dynstat_salt_del2            =   0.0000000000000E+00
(PID.TID 0000.0001) %MON trAdv_CFL_u_max              =   1.0989514679810E-08
(PID.TID 0000.0001) %MON trAdv_CFL_v_max              =   1.4783550166018E-08
(PID.TID 0000.0001) %MON trAdv_CFL_w_max              =   2.5712972117908E-14
(PID.TID 0000.0001) %MON advcfl_uvel_max              =   1.0982868748276E-08
(PID.TID 0000.0001) %MON advcfl_vvel_max              =   1.4786588408107E-08
(PID.TID 0000.0001) %MON advcfl_wvel_max              =   5.1481388880692E-14
(PID.TID 0000.0001) %MON advcfl_W_hf_max              =   0.0000000000000E+00
(PID.TID 0000.0001) %MON pe_b_mean                    =   1.3362846668735E-20
(PID.TID 0000.0001) %MON ke_max                       =   9.3682104351914E-17
(PID.TID 0000.0001) %MON ke_mean                      =   1.0032114513661E-17
(PID.TID 0000.0001) %MON ke_vol                       =   7.5645000000000E+15
(PID.TID 0000.0001) %MON vort_r_min                   =  -7.3629943206653E-13
(PID.TID 0000.0001) %MON vort_r_max                   =   4.5750400456793E-13
(PID.TID 0000.0001) %MON vort_a_mean                  =   8.2300000000001E-05
(PID.TID 0000.0001) %MON vort_a_sd                    =   7.1297555115490E-06
(PID.TID 0000.0001) %MON vort_p_mean                  =   8.3303658536586E-05
(PID.TID 0000.0001) %MON vort_p_sd                    =   1.7411470227966E-05
(PID.TID 0000.0001) %MON surfExpan_theta_mean         =  -3.1504452404710E-26
(PID.TID 0000.0001) %MON surfExpan_salt_mean          =  -4.7464664974644E-26
(PID.TID 0000.0001) // =======================================================
(PID.TID 0000.0001) // End MONITOR dynamic field statistics
(PID.TID 0000.0001) // =======================================================
 cg2d: Sum(rhs),rhsMax =  -2.48508729193601E-03  1.63394683305049E-09
 cg2d: Sum(rhs),rhsMax =  -2.48936477294911E-03  1.63113909023292E-09
 cg2d: Sum(rhs),rhsMax =  -2.49378955437289E-03  1.62824479748450E-09
 cg2d: Sum(rhs),rhsMax =  -2.49836172589838E-03  1.62526487009335E-09
 cg2d: Sum(rhs),rhsMax =  -2.50308139060409E-03  1.62220023631907E-09
 cg2d: Sum(rhs),rhsMax =  -2.50794866096589E-03  1.61905183718710E-09
 cg2d: Sum(rhs),rhsMax =  -2.51296367673507E-03  1.61582062628024E-09
 cg2d: Sum(rhs),rhsMax =  -2.51812659639450E-03  1.61250756952812E-09
 cg2d: Sum(rhs),rhsMax =  -2.52343757755336E-03  1.60911364499443E-09
 cg2d: Sum(rhs),rhsMax =  -2.52889684014758E-03  1.60563984286517E-09
 cg2d: Sum(rhs),rhsMax =  -2.53450455695975E-03  1.60208716423720E-09
 cg2d: Sum(rhs),rhsMax =  -2.54026093128097E-03  1.59845662291103E-09
 cg2d: Sum(rhs),rhsMax =  -2.54616617942590E-03  1.59474924289469E-09
 cg2d: Sum(rhs),rhsMax =  -2.55222054382783E-03  1.59096606000174E-09
 cg2d: Sum(rhs),rhsMax =  -2.55842427339137E-03  1.58710812014473E-09
 cg2d: Sum(rhs),rhsMax =  -2.56477761579760E-03  1.58317648053726E-09
(PID.TID 0000.0001)      cg2d_init_res =   1.55308334436332E-01
(PID.TID 0000.0001)      cg2d_iters(min,last) =      -1     541
(PID.TID 0000.0001)      cg2d_last_res =   9.47092725835372E-08
(PID.TID 0000.0001) // =======================================================
(PID.TID 0000.0001) // Begin MONITOR dynamic field statistics
(PID.TID 0000.0001) // =======================================================
(PID.TID 0000.0001) %MON time_tsnumber                =                  1424
(PID.TID 0000.0001) %MON time_secondsf                =   7.6896000000000E+06
(PID.TID 0000.0001) %MON dynstat_eta_max              =   8.8472834096463E-09
(PID.TID 0000.0001) %MON dynstat_eta_min              =  -1.1180564299306E-08
(PID.TID 0000.0001) %MON dynstat_eta_mean             =   3.9131483114205E-13
(PID.TID 0000.0001) %MON dynstat_eta_sd               =   3.6461424472147E-09
(PID.TID 0000.0001) %MON dynstat_eta_del2             =   5.9683597800917E-14
(PID.TID 0000.0001) %MON dynstat_uvel_max             =   8.6471848071618E-09
(PID.TID 0000.0001) %MON dynstat_uvel_min             =  -1.0060005563344E-08
(PID.TID 0000.0001) %MON dynstat_uvel_mean            =  -2.8693645407134E-13
(PID.TID 0000.0001) %MON dynstat_uvel_sd              =   2.7510643050022E-09
(PID.TID 0000.0001) %MON dynstat_uvel_del2            =   1.3055505838412E-13
(PID.TID 0000.0001) %MON dynstat_vvel_max             =   1.0667626527734E-08
(PID.TID 0000.0001) %MON dynstat_vvel_min             =  -1.3631425847408E-08
(PID.TID 0000.0001) %MON dynstat_vvel_mean            =  -5.0078976062663E-14
(PID.TID 0000.0001) %MON dynstat_vvel_sd              =   3.4786853370721E-09
(PID.TID 0000.0001) %MON dynstat_vvel_del2            =   2.4226313759725E-13
(PID.TID 0000.0001) %MON dynstat_wvel_max             =   2.4034709911191E-14
(PID.TID 0000.0001) %MON dynstat_wvel_min             =  -1.2058456921871E-14
(PID.TID 0000.0001) %MON dynstat_wvel_mean            =   6.1475729422009E-28
(PID.TID 0000.0001) %MON dynstat_wvel_sd              =   7.8686076096515E-15
(PID.TID 0000.0001) %MON dynstat_wvel_del2            =   6.3015652719213E-20
(PID.TID 0000.0001) %MON dynstat_theta_max            =   2.0000000000000E+01
(PID.TID 0000.0001) %MON dynstat_theta_min            =   2.0000000000000E+01
(PID.TID 0000.0001) %MON dynstat_theta_mean           =   2.0000000000000E+01
(PID.TID 0000.0001) %MON dynstat_theta_sd             =   0.0000000000000E+00
(PID.TID 0000.0001) %MON dynstat_theta_del2           =   0.0000000000000E+00
(PID.TID 0000.0001) %MON dynstat_salt_max             =   3.0000000000000E+01
(PID.TID 0000.0001) %MON dynstat_salt_min             =   3.0000000000000E+01
(PID.TID 0000.0001) %MON dynstat_salt_mean            =   3.0000000000000E+01
(PID.TID 0000.0001) %MON dynstat_salt_sd              =   0.0000000000000E+00
(PID.TID 0000.0001) %MON dynstat_salt_del2            =   0.0000000000000E+00
(PID.TID 0000.0001) %MON trAdv_CFL_u_max              =   1.0872928421177E-08
(PID.TID 0000.0001) %MON trAdv_CFL_v_max              =   1.4732058498109E-08
(PID.TID 0000.0001) %MON trAdv_CFL_w_max              =   2.5955856209947E-14
(PID.TID 0000.0001) %MON advcfl_uvel_max              =   1.0864806008412E-08
(PID.TID 0000.0001) %MON advcfl_vvel_max              =   1.4721939915201E-08
(PID.TID 0000.0001) %MON advcfl_wvel_max              =   5.1914973408174E-14
(PID.TID 0000.0001) %MON advcfl_W_hf_max              =   0.0000000000000E+00
(PID.TID 0000.0001) %MON pe_b_mean                    =   1.3041762155437E-20
(PID.TID 0000.0001) %MON ke_max                       =   9.2838763844877E-17
(PID.TID 0000.0001) %MON ke_mean                      =   9.7948244095880E-18
(PID.TID 0000.0001) %MON ke_vol                       =   7.5645000000000E+15
(PID.TID 0000.0001) %MON vort_r_min                   =  -7.1983730571195E-13
(PID.TID 0000.0001) %MON vort_r_max                   =   4.9167304308713E-13
(PID.TID 0000.0001) %MON vort_a_mean                  =   8.2300000000001E-05
(PID.TID 0000.0001) %MON vort_a_sd                    =   7.1297555115458E-06
(PID.TID 0000.0001) %MON vort_p_mean                  =   8.3303658536586E-05
(PID.TID 0000.0001) %MON vort_p_sd                    =   1.7411470228138E-05
(PID.TID 0000.0001) %MON surfExpan_theta_mean         =   1.2308259047299E-26
(PID.TID 0000.0001) %MON surfExpan_salt_mean          =   1.8360281181808E-26
(PID.TID 0000.0001) // =======================================================
(PID.TID 0000.0001) // End MONITOR dynamic field statistics
(PID.TID 0000.0001) // =======================================================
 cg2d: Sum(rhs),rhsMax =  -2.57128084901131E-03  1.57917220806896E-09
 cg2d: Sum(rhs),rhsMax =  -2.57793424886463E-03  1.57509638038015E-09
 cg2d: Sum(rhs),rhsMax =  -2.58473810843754E-03  1.57095008443223E-09
 cg2d: Sum(rhs),rhsMax =  -2.59169272318217E-03  1.56673441734885E-09
 cg2d: Sum(rhs),rhsMax =  -2.59879839642131E-03  1.56245048523515E-09
 cg2d: Sum(rhs),rhsMax =  -2.60605544654709E-03  1.55809940374403E-09
 cg2d: Sum(rhs),rhsMax =  -2.61346419917268E-03  1.55368229717918E-09
 cg2d: Sum(rhs),rhsMax =  -2.62102496710939E-03  1.54920029875940E-09
 cg2d: Sum(rhs),rhsMax =  -2.62873809974632E-03  1.54465455002509E-09
 cg2d: Sum(rhs),rhsMax =  -2.63660392466044E-03  1.54004620078996E-09
 cg2d: Sum(rhs),rhsMax =  -2.64462278433784E-03  1.53537640885316E-09
 cg2d: Sum(rhs),rhsMax =  -2.65279503550026E-03  1.53064633964579E-09
 cg2d: Sum(rhs),rhsMax =  -2.66112101512826E-03  1.52585716623253E-09
 cg2d: Sum(rhs),rhsMax =  -2.66960108178705E-03  1.52101006867747E-09
 cg2d: Sum(rhs),rhsMax =  -2.67823558351662E-03  1.51610623430466E-09
 cg2d: Sum(rhs),rhsMax =  -2.68702487602446E-03  1.51114685682001E-09
(PID.TID 0000.0001)      cg2d_init_res =   1.62330031402645E-01
(PID.TID 0000.0001)      cg2d_iters(min,last) =      -1     543
(PID.TID 0000.0001)      cg2d_last_res =   9.45473507231147E-08
(PID.TID 0000.0001) // =======================================================
(PID.TID 0000.0001) // Begin MONITOR dynamic field statistics
(PID.TID 0000.0001) // =======================================================
(PID.TID 0000.0001) %MON time_tsnumber                =                  1440
(PID.TID 0000.0001) %MON time_secondsf                =   7.7760000000000E+06
(PID.TID 0000.0001) %MON dynstat_eta_max              =   9.4989444936828E-09
(PID.TID 0000.0001) %MON dynstat_eta_min              =  -1.0752413577830E-08
(PID.TID 0000.0001) %MON dynstat_eta_mean             =   3.9131421525963E-13
(PID.TID 0000.0001) %MON dynstat_eta_sd               =   3.6075092961954E-09
(PID.TID 0000.0001) %MON dynstat_eta_del2             =   5.8765751292031E-14
(PID.TID 0000.0001) %MON dynstat_uvel_max             =   8.7913307966461E-09
(PID.TID 0000.0001) %MON dynstat_uvel_min             =  -9.9343593669222E-09
(PID.TID 0000.0001) %MON dynstat_uvel_mean            =  -3.2404223363151E-13
(PID.TID 0000.0001) %MON dynstat_uvel_sd              =   2.7192261299154E-09
(PID.TID 0000.0001) %MON dynstat_uvel_del2            =   1.2558313583803E-13
(PID.TID 0000.0001) %MON dynstat_vvel_max             =   1.0694923194445E-08
(PID.TID 0000.0001) %MON dynstat_vvel_min             =  -1.3386499710796E-08
(PID.TID 0000.0001) %MON dynstat_vvel_mean            =  -4.5936597671893E-14
(PID.TID 0000.0001) %MON dynstat_vvel_sd              =   3.4367959935353E-09
(PID.TID 0000.0001) %MON dynstat_vvel_del2            =   2.4183779196460E-13
(PID.TID 0000.0001) %MON dynstat_wvel_max             =   2.3781773788034E-14
(PID.TID 0000.0001) %MON dynstat_wvel_min             =  -1.2875276764190E-14
(PID.TID 0000.0001) %MON dynstat_wvel_mean            =   1.2165788217545E-28
(PID.TID 0000.0001) %MON dynstat_wvel_sd              =   7.8229215041802E-15
(PID.TID 0000.0001) %MON dynstat_wvel_del2            =   6.2825018818639E-20
(PID.TID 0000.0001) %MON dynstat_theta_max            =   2.0000000000000E+01
(PID.TID 0000.0001) %MON dynstat_theta_min            =   2.0000000000000E+01
(PID.TID 0000.0001) %MON dynstat_theta_mean           =   2.0000000000000E+01
(PID.TID 0000.0001) %MON dynstat_theta_sd             =   0.0000000000000E+00
(PID.TID 0000.0001) %MON dynstat_theta_del2           =   0.0000000000000E+00
(PID.TID 0000.0001) %MON dynstat_salt_max             =   3.0000000000000E+01
(PID.TID 0000.0001) %MON dynstat_salt_min             =   3.0000000000000E+01
(PID.TID 0000.0001) %MON dynstat_salt_mean            =   3.0000000000000E+01
(PID.TID 0000.0001) %MON dynstat_salt_sd              =   0.0000000000000E+00
(PID.TID 0000.0001) %MON dynstat_salt_del2            =   0.0000000000000E+00
(PID.TID 0000.0001) %MON trAdv_CFL_u_max              =   1.0738490283491E-08
(PID.TID 0000.0001) %MON trAdv_CFL_v_max              =   1.4479365715066E-08
(PID.TID 0000.0001) %MON trAdv_CFL_w_max              =   2.5716643111018E-14
(PID.TID 0000.0001) %MON advcfl_uvel_max              =   1.0729108116276E-08
(PID.TID 0000.0001) %MON advcfl_vvel_max              =   1.4457419687659E-08
(PID.TID 0000.0001) %MON advcfl_wvel_max              =   5.1368631382154E-14
(PID.TID 0000.0001) %MON advcfl_W_hf_max              =   0.0000000000000E+00
(PID.TID 0000.0001) %MON pe_b_mean                    =   1.2766855129233E-20
(PID.TID 0000.0001) %MON ke_max                       =   8.9521984370164E-17
(PID.TID 0000.0001) %MON ke_mean                      =   9.5638426843650E-18
(PID.TID 0000.0001) %MON ke_vol                       =   7.5645000000000E+15
(PID.TID 0000.0001) %MON vort_r_min                   =  -6.9418309363894E-13
(PID.TID 0000.0001) %MON vort_r_max                   =   5.3135539956981E-13
(PID.TID 0000.0001) %MON vort_a_mean                  =   8.2299999999999E-05
(PID.TID 0000.0001) %MON vort_a_sd                    =   7.1297555115687E-06
(PID.TID 0000.0001) %MON vort_p_mean                  =   8.3303658536585E-05
(PID.TID 0000.0001) %MON vort_p_sd                    =   1.7411470228299E-05
(PID.TID 0000.0001) %MON surfExpan_theta_mean         =   2.2660843927214E-27
(PID.TID 0000.0001) %MON surfExpan_salt_mean          =   3.4204532987303E-27
(PID.TID 0000.0001) // =======================================================
(PID.TID 0000.0001) // End MONITOR dynamic field statistics
(PID.TID 0000.0001) // =======================================================
 cg2d: Sum(rhs),rhsMax =  -2.69596940776371E-03  1.50613313812167E-09
 cg2d: Sum(rhs),rhsMax =  -2.70506943794514E-03  1.50106628184205E-09
 cg2d: Sum(rhs),rhsMax =  -2.71432531443387E-03  1.49594750219148E-09
 cg2d: Sum(rhs),rhsMax =  -2.72373737912966E-03  1.49077801712829E-09
 cg2d: Sum(rhs),rhsMax =  -2.73330598298011E-03  1.48555905059202E-09
 cg2d: Sum(rhs),rhsMax =  -2.74303145446045E-03  1.48029183119908E-09
 cg2d: Sum(rhs),rhsMax =  -2.75291412915656E-03  1.47497759305599E-09
 cg2d: Sum(rhs),rhsMax =  -2.76295433586676E-03  1.46961757437105E-09
 cg2d: Sum(rhs),rhsMax =  -2.77315238512657E-03  1.46421301836048E-09
 cg2d: Sum(rhs),rhsMax =  -2.78350858709044E-03  1.45876517179685E-09
 cg2d: Sum(rhs),rhsMax =  -2.79402324473825E-03  1.45327528596057E-09
 cg2d: Sum(rhs),rhsMax =  -2.80469663654212E-03  1.44774461515360E-09
 cg2d: Sum(rhs),rhsMax =  -2.81552910831654E-03  1.44217441741961E-09
 cg2d: Sum(rhs),rhsMax =  -2.82652085828898E-03  1.43656595426590E-09
 cg2d: Sum(rhs),rhsMax =  -2.82854274444075E-03  1.43553891829347E-09
 cg2d: Sum(rhs),rhsMax =  -2.81463013824296E-03  1.44263456709123E-09
(PID.TID 0000.0001)      cg2d_init_res =   1.69135058555676E-01
(PID.TID 0000.0001)      cg2d_iters(min,last) =      -1     544
(PID.TID 0000.0001)      cg2d_last_res =   8.49827330495276E-08
(PID.TID 0000.0001) // =======================================================
(PID.TID 0000.0001) // Begin MONITOR dynamic field statistics
(PID.TID 0000.0001) // =======================================================
(PID.TID 0000.0001) %MON time_tsnumber                =                  1456
(PID.TID 0000.0001) %MON time_secondsf                =   7.8624000000000E+06
(PID.TID 0000.0001) %MON dynstat_eta_max              =   9.9847854786918E-09
(PID.TID 0000.0001) %MON dynstat_eta_min              =  -1.0192804764825E-08
(PID.TID 0000.0001) %MON dynstat_eta_mean             =   3.9131357755694E-13
(PID.TID 0000.0001) %MON dynstat_eta_sd               =   3.5751865556269E-09
(PID.TID 0000.0001) %MON dynstat_eta_del2             =   5.7865864818271E-14
(PID.TID 0000.0001) %MON dynstat_uvel_max             =   8.8472672273928E-09
(PID.TID 0000.0001) %MON dynstat_uvel_min             =  -9.7943926053788E-09
(PID.TID 0000.0001) %MON dynstat_uvel_mean            =  -3.4339990305240E-13
(PID.TID 0000.0001) %MON dynstat_uvel_sd              =   2.6836655406392E-09
(PID.TID 0000.0001) %MON dynstat_uvel_del2            =   1.1979264152175E-13
(PID.TID 0000.0001) %MON dynstat_vvel_max             =   1.0550166140221E-08
(PID.TID 0000.0001) %MON dynstat_vvel_min             =  -1.2979890160139E-08
(PID.TID 0000.0001) %MON dynstat_vvel_mean            =  -4.0717950220066E-14
(PID.TID 0000.0001) %MON dynstat_vvel_sd              =   3.3987945329598E-09
(PID.TID 0000.0001) %MON dynstat_vvel_del2            =   2.4206629850884E-13
(PID.TID 0000.0001) %MON dynstat_wvel_max             =   2.3073465755807E-14
(PID.TID 0000.0001) %MON dynstat_wvel_min             =  -1.3697010681768E-14
(PID.TID 0000.0001) %MON dynstat_wvel_mean            =  -3.5567460810149E-28
(PID.TID 0000.0001) %MON dynstat_wvel_sd              =   7.7556277168501E-15
(PID.TID 0000.0001) %MON dynstat_wvel_del2            =   6.2532614317650E-20
(PID.TID 0000.0001) %MON dynstat_theta_max            =   2.0000000000000E+01
(PID.TID 0000.0001) %MON dynstat_theta_min            =   2.0000000000000E+01
(PID.TID 0000.0001) %MON dynstat_theta_mean           =   2.0000000000000E+01
(PID.TID 0000.0001) %MON dynstat_theta_sd             =   0.0000000000000E+00
(PID.TID 0000.0001) %MON dynstat_theta_del2           =   0.0000000000000E+00
(PID.TID 0000.0001) %MON dynstat_salt_max             =   3.0000000000000E+01
(PID.TID 0000.0001) %MON dynstat_salt_min             =   3.0000000000000E+01
(PID.TID 0000.0001) %MON dynstat_salt_mean            =   3.0000000000000E+01
(PID.TID 0000.0001) %MON dynstat_salt_sd              =   0.0000000000000E+00
(PID.TID 0000.0001) %MON dynstat_salt_del2            =   0.0000000000000E+00
(PID.TID 0000.0001) %MON trAdv_CFL_u_max              =   1.0588365057095E-08
(PID.TID 0000.0001) %MON trAdv_CFL_v_max              =   1.4050271101773E-08
(PID.TID 0000.0001) %MON trAdv_CFL_w_max              =   2.4980506949390E-14
(PID.TID 0000.0001) %MON advcfl_uvel_max              =   1.0577944013809E-08
(PID.TID 0000.0001) %MON advcfl_vvel_max              =   1.4018281372950E-08
(PID.TID 0000.0001) %MON advcfl_wvel_max              =   4.9838686032544E-14
(PID.TID 0000.0001) %MON advcfl_W_hf_max              =   0.0000000000000E+00
(PID.TID 0000.0001) %MON pe_b_mean                    =   1.2539101838509E-20
(PID.TID 0000.0001) %MON ke_max                       =   8.4183274879050E-17
(PID.TID 0000.0001) %MON ke_mean                      =   9.3388149533818E-18
(PID.TID 0000.0001) %MON ke_vol                       =   7.5645000000000E+15
(PID.TID 0000.0001) %MON vort_r_min                   =  -6.6116685893738E-13
(PID.TID 0000.0001) %MON vort_r_max                   =   5.7472965852316E-13
(PID.TID 0000.0001) %MON vort_a_mean                  =   8.2300000000001E-05
(PID.TID 0000.0001) %MON vort_a_sd                    =   7.1297555115511E-06
(PID.TID 0000.0001) %MON vort_p_mean                  =   8.3303658536586E-05
(PID.TID 0000.0001) %MON vort_p_sd                    =   1.7411470228424E-05
(PID.TID 0000.0001) %MON surfExpan_theta_mean         =  -7.0741141562666E-27
(PID.TID 0000.0001) %MON surfExpan_salt_mean          =  -1.0660422205584E-26
(PID.TID 0000.0001) // =======================================================
(PID.TID 0000.0001) // End MONITOR dynamic field statistics
(PID.TID 0000.0001) // =======================================================
 cg2d: Sum(rhs),rhsMax =  -2.80084834052734E-03  1.44973299234831E-09
 cg2d: Sum(rhs),rhsMax =  -2.78719801725208E-03  1.45683288747749E-09
 cg2d: Sum(rhs),rhsMax =  -2.77367968257538E-03  1.46393294501498E-09
 cg2d: Sum(rhs),rhsMax =  -2.76029397244023E-03  1.47103185632679E-09
 cg2d: Sum(rhs),rhsMax =  -2.74704136223035E-03  1.47812831324205E-09
 cg2d: Sum(rhs),rhsMax =  -2.73392228518034E-03  1.48522100668101E-09
 cg2d: Sum(rhs),rhsMax =  -2.72093712474028E-03  1.49230862778403E-09
 cg2d: Sum(rhs),rhsMax =  -2.70808591305675E-03  1.49938986836477E-09
 cg2d: Sum(rhs),rhsMax =  -2.69536918908342E-03  1.50646342006847E-09
 cg2d: Sum(rhs),rhsMax =  -2.68278718192551E-03  1.51352797690023E-09
 cg2d: Sum(rhs),rhsMax =  -2.67034005259428E-03  1.52058223273922E-09
 cg2d: Sum(rhs),rhsMax =  -2.65802792154246E-03  1.52762488332968E-09
 cg2d: Sum(rhs),rhsMax =  -2.64585085555655E-03  1.53465462599891E-09
 cg2d: Sum(rhs),rhsMax =  -2.63380886291762E-03  1.54167016040430E-09
 cg2d: Sum(rhs),rhsMax =  -2.62190187014677E-03  1.54867018781442E-09
 cg2d: Sum(rhs),rhsMax =  -2.61012970378623E-03  1.55565341264939E-09
(PID.TID 0000.0001)      cg2d_init_res =   1.55360056423486E-01
(PID.TID 0000.0001)      cg2d_iters(min,last) =      -1     541
(PID.TID 0000.0001)      cg2d_last_res =   9.43938278646795E-08
(PID.TID 0000.0001) // =======================================================
(PID.TID 0000.0001) // Begin MONITOR dynamic field statistics
(PID.TID 0000.0001) // =======================================================
(PID.TID 0000.0001) %MON time_tsnumber                =                  1472
(PID.TID 0000.0001) %MON time_secondsf                =   7.9488000000000E+06
(PID.TID 0000.0001) %MON dynstat_eta_max              =   1.0292069950800E-08
(PID.TID 0000.0001) %MON dynstat_eta_min              =  -9.5190271834885E-09
(PID.TID 0000.0001) %MON dynstat_eta_mean             =   3.9131063620084E-13
(PID.TID 0000.0001) %MON dynstat_eta_sd               =   3.5481812881507E-09
(PID.TID 0000.0001) %MON dynstat_eta_del2             =   5.7009324661138E-14
(PID.TID 0000.0001) %MON dynstat_uvel_max             =   8.8046047775981E-09
(PID.TID 0000.0001) %MON dynstat_uvel_min             =  -9.6419343482627E-09
(PID.TID 0000.0001) %MON dynstat_uvel_mean            =  -3.4429827020910E-13
(PID.TID 0000.0001) %MON dynstat_uvel_sd              =   2.6411296344842E-09
(PID.TID 0000.0001) %MON dynstat_uvel_del2            =   1.1360257252458E-13
(PID.TID 0000.0001) %MON dynstat_vvel_max             =   1.0734261780410E-08
(PID.TID 0000.0001) %MON dynstat_vvel_min             =  -1.2440937383801E-08
(PID.TID 0000.0001) %MON dynstat_vvel_mean            =  -3.4728209660664E-14
(PID.TID 0000.0001) %MON dynstat_vvel_sd              =   3.3670964649822E-09
(PID.TID 0000.0001) %MON dynstat_vvel_del2            =   2.4269295544190E-13
(PID.TID 0000.0001) %MON dynstat_wvel_max             =   2.1941085356358E-14
(PID.TID 0000.0001) %MON dynstat_wvel_min             =  -1.4237368620718E-14
(PID.TID 0000.0001) %MON dynstat_wvel_mean            =   3.7517506880580E-29
(PID.TID 0000.0001) %MON dynstat_wvel_sd              =   7.6688072451438E-15
(PID.TID 0000.0001) %MON dynstat_wvel_del2            =   6.2319485465585E-20
(PID.TID 0000.0001) %MON dynstat_theta_max            =   2.0000000000000E+01
(PID.TID 0000.0001) %MON dynstat_theta_min            =   2.0000000000000E+01
(PID.TID 0000.0001) %MON dynstat_theta_mean           =   2.0000000000000E+01
(PID.TID 0000.0001) %MON dynstat_theta_sd             =   0.0000000000000E+00
(PID.TID 0000.0001) %MON dynstat_theta_del2           =   0.0000000000000E+00
(PID.TID 0000.0001) %MON dynstat_salt_max             =   3.0000000000000E+01
(PID.TID 0000.0001) %MON dynstat_salt_min             =   3.0000000000000E+01
(PID.TID 0000.0001) %MON dynstat_salt_mean            =   3.0000000000000E+01
(PID.TID 0000.0001) %MON dynstat_salt_sd              =   0.0000000000000E+00
(PID.TID 0000.0001) %MON dynstat_salt_del2            =   0.0000000000000E+00
(PID.TID 0000.0001) %MON trAdv_CFL_u_max              =   1.0424531285015E-08
(PID.TID 0000.0001) %MON trAdv_CFL_v_max              =   1.3476109021809E-08
(PID.TID 0000.0001) %MON trAdv_CFL_w_max              =   2.3784966581886E-14
(PID.TID 0000.0001) %MON advcfl_uvel_max              =   1.0413289096124E-08
(PID.TID 0000.0001) %MON advcfl_vvel_max              =   1.3436212374506E-08
(PID.TID 0000.0001) %MON advcfl_wvel_max              =   4.7392744369734E-14
(PID.TID 0000.0001) %MON advcfl_W_hf_max              =   0.0000000000000E+00
(PID.TID 0000.0001) %MON pe_b_mean                    =   1.2350388385179E-20
(PID.TID 0000.0001) %MON ke_max                       =   7.7352937120821E-17
(PID.TID 0000.0001) %MON ke_mean                      =   9.1192308846472E-18
(PID.TID 0000.0001) %MON ke_vol                       =   7.5645000000000E+15
(PID.TID 0000.0001) %MON vort_r_min                   =  -6.2286341648671E-13
(PID.TID 0000.0001) %MON vort_r_max                   =   6.1985834073538E-13
(PID.TID 0000.0001) %MON vort_a_mean                  =   8.2300000000000E-05
(PID.TID 0000.0001) %MON vort_a_sd                    =   7.1297555115531E-06
(PID.TID 0000.0001) %MON vort_p_mean                  =   8.3303658536586E-05
(PID.TID 0000.0001) %MON vort_p_sd                    =   1.7411470228532E-05
(PID.TID 0000.0001) %MON surfExpan_theta_mean         =   7.9745277032453E-28
(PID.TID 0000.0001) %MON surfExpan_salt_mean          =   1.1982641252109E-27
(PID.TID 0000.0001) // =======================================================
(PID.TID 0000.0001) // End MONITOR dynamic field statistics
(PID.TID 0000.0001) // =======================================================
 cg2d: Sum(rhs),rhsMax =  -2.59849196584290E-03  1.56261854140468E-09
 cg2d: Sum(rhs),rhsMax =  -2.58698769876901E-03  1.56956428427381E-09
 cg2d: Sum(rhs),rhsMax =  -2.57561319832638E-03  1.57648935401772E-09
 cg2d: Sum(rhs),rhsMax =  -2.56466294632871E-03  1.58339246573309E-09
 cg2d: Sum(rhs),rhsMax =  -2.55357752443911E-03  1.59027234729334E-09
 cg2d: Sum(rhs),rhsMax =  -2.54262179248613E-03  1.59712771162262E-09
 cg2d: Sum(rhs),rhsMax =  -2.53179876091628E-03  1.60395729555720E-09
 cg2d: Sum(rhs),rhsMax =  -2.52110901363322E-03  1.61075982980641E-09
 cg2d: Sum(rhs),rhsMax =  -2.51055262936343E-03  1.61753405312722E-09
 cg2d: Sum(rhs),rhsMax =  -2.50012948012211E-03  1.62427870836161E-09
 cg2d: Sum(rhs),rhsMax =  -2.48983934996647E-03  1.63099254439371E-09
 cg2d: Sum(rhs),rhsMax =  -2.47968195768359E-03  1.63767431499211E-09
 cg2d: Sum(rhs),rhsMax =  -2.46965717749265E-03  1.64432277971100E-09
 cg2d: Sum(rhs),rhsMax =  -2.45976447301043E-03  1.65093670562331E-09
 cg2d: Sum(rhs),rhsMax =  -2.45000347590403E-03  1.65751486450440E-09
 cg2d: Sum(rhs),rhsMax =  -2.44037381238168E-03  1.66405603518055E-09
(PID.TID 0000.0001)      cg2d_init_res =   1.43174217584512E-01
(PID.TID 0000.0001)      cg2d_iters(min,last) =      -1     540
(PID.TID 0000.0001)      cg2d_last_res =   9.73670892233186E-08
(PID.TID 0000.0001) // =======================================================
(PID.TID 0000.0001) // Begin MONITOR dynamic field statistics
(PID.TID 0000.0001) // =======================================================
(PID.TID 0000.0001) %MON time_tsnumber                =                  1488
(PID.TID 0000.0001) %MON time_secondsf                =   8.0352000000000E+06
(PID.TID 0000.0001) %MON dynstat_eta_max              =   1.0418948601324E-08
(PID.TID 0000.0001) %MON dynstat_eta_min              =  -8.7501791855491E-09
(PID.TID 0000.0001) %MON dynstat_eta_mean             =   3.9135578779843E-13
(PID.TID 0000.0001) %MON dynstat_eta_sd               =   3.5243181938017E-09
(PID.TID 0000.0001) %MON dynstat_eta_del2             =   5.6217441027710E-14
(PID.TID 0000.0001) %MON dynstat_uvel_max             =   8.6575602799015E-09
(PID.TID 0000.0001) %MON dynstat_uvel_min             =  -9.4784958117332E-09
(PID.TID 0000.0001) %MON dynstat_uvel_mean            =  -3.2703117898786E-13
(PID.TID 0000.0001) %MON dynstat_uvel_sd              =   2.5898898261975E-09
(PID.TID 0000.0001) %MON dynstat_uvel_del2            =   1.0757489124810E-13
(PID.TID 0000.0001) %MON dynstat_vvel_max             =   1.1491945210265E-08
(PID.TID 0000.0001) %MON dynstat_vvel_min             =  -1.1803304448753E-08
(PID.TID 0000.0001) %MON dynstat_vvel_mean            =  -2.8285516428191E-14
(PID.TID 0000.0001) %MON dynstat_vvel_sd              =   3.3427739564963E-09
(PID.TID 0000.0001) %MON dynstat_vvel_del2            =   2.4339038620474E-13
(PID.TID 0000.0001) %MON dynstat_wvel_max             =   2.0457412068797E-14
(PID.TID 0000.0001) %MON dynstat_wvel_min             =  -1.4733671241385E-14
(PID.TID 0000.0001) %MON dynstat_wvel_mean            =  -6.7849447559490E-28
(PID.TID 0000.0001) %MON dynstat_wvel_sd              =   7.5683042550522E-15
(PID.TID 0000.0001) %MON dynstat_wvel_del2            =   6.1813153235417E-20
(PID.TID 0000.0001) %MON dynstat_theta_max            =   2.0000000000000E+01
(PID.TID 0000.0001) %MON dynstat_theta_min            =   2.0000000000000E+01
(PID.TID 0000.0001) %MON dynstat_theta_mean           =   2.0000000000000E+01
(PID.TID 0000.0001) %MON dynstat_theta_sd             =   0.0000000000000E+00
(PID.TID 0000.0001) %MON dynstat_theta_del2           =   0.0000000000000E+00
(PID.TID 0000.0001) %MON dynstat_salt_max             =   3.0000000000000E+01
(PID.TID 0000.0001) %MON dynstat_salt_min             =   3.0000000000000E+01
(PID.TID 0000.0001) %MON dynstat_salt_mean            =   3.0000000000000E+01
(PID.TID 0000.0001) %MON dynstat_salt_sd              =   0.0000000000000E+00
(PID.TID 0000.0001) %MON dynstat_salt_del2            =   0.0000000000000E+00
(PID.TID 0000.0001) %MON trAdv_CFL_u_max              =   1.0248630977428E-08
(PID.TID 0000.0001) %MON trAdv_CFL_v_max              =   1.2792999837996E-08
(PID.TID 0000.0001) %MON trAdv_CFL_w_max              =   2.2204262603376E-14
(PID.TID 0000.0001) %MON advcfl_uvel_max              =   1.0236775476672E-08
(PID.TID 0000.0001) %MON advcfl_vvel_max              =   1.2747568804653E-08
(PID.TID 0000.0001) %MON advcfl_wvel_max              =   4.4188010068602E-14
(PID.TID 0000.0001) %MON advcfl_W_hf_max              =   0.0000000000000E+00
(PID.TID 0000.0001) %MON pe_b_mean                    =   1.2184823325519E-20
(PID.TID 0000.0001) %MON ke_max                       =   6.9641872011869E-17
(PID.TID 0000.0001) %MON ke_mean                      =   8.9044887199920E-18
(PID.TID 0000.0001) %MON ke_vol                       =   7.5645000000000E+15
(PID.TID 0000.0001) %MON vort_r_min                   =  -5.8148032257550E-13
(PID.TID 0000.0001) %MON vort_r_max                   =   6.6483785420152E-13
(PID.TID 0000.0001) %MON vort_a_mean                  =   8.2300000000000E-05
(PID.TID 0000.0001) %MON vort_a_sd                    =   7.1297555115564E-06
(PID.TID 0000.0001) %MON vort_p_mean                  =   8.3303658536586E-05
(PID.TID 0000.0001) %MON vort_p_sd                    =   1.7411470228619E-05
(PID.TID 0000.0001) %MON surfExpan_theta_mean         =  -1.3541177396067E-26
(PID.TID 0000.0001) %MON surfExpan_salt_mean          =  -2.0299000973341E-26
(PID.TID 0000.0001) // =======================================================
(PID.TID 0000.0001) // End MONITOR dynamic field statistics
(PID.TID 0000.0001) // =======================================================
 cg2d: Sum(rhs),rhsMax =  -2.43087507520617E-03  1.67055900330373E-09
 cg2d: Sum(rhs),rhsMax =  -2.42150684506903E-03  1.67702256155115E-09
 cg2d: Sum(rhs),rhsMax =  -2.41226868865975E-03  1.68344550990820E-09
 cg2d: Sum(rhs),rhsMax =  -2.40316015784961E-03  1.68982665586593E-09
 cg2d: Sum(rhs),rhsMax =  -2.39418079719756E-03  1.69616481467919E-09
 cg2d: Sum(rhs),rhsMax =  -2.38533013549431E-03  1.70245880958909E-09
 cg2d: Sum(rhs),rhsMax =  -2.37660769237174E-03  1.70870747203691E-09
 cg2d: Sum(rhs),rhsMax =  -2.36801298233086E-03  1.71490964199736E-09
 cg2d: Sum(rhs),rhsMax =  -2.35954550878384E-03  1.72106416801405E-09
 cg2d: Sum(rhs),rhsMax =  -2.35120476596113E-03  1.72716990761708E-09
 cg2d: Sum(rhs),rhsMax =  -2.34299024087122E-03  1.73322572744997E-09
 cg2d: Sum(rhs),rhsMax =  -2.33490142432367E-03  1.73923050351240E-09
 cg2d: Sum(rhs),rhsMax =  -2.32693779428593E-03  1.74518312138245E-09
 cg2d: Sum(rhs),rhsMax =  -2.31909883081176E-03  1.75108247643370E-09
 cg2d: Sum(rhs),rhsMax =  -2.31138400379257E-03  1.75692747405151E-09
 cg2d: Sum(rhs),rhsMax =  -2.30379278578391E-03  1.76271702984656E-09
(PID.TID 0000.0001)      cg2d_init_res =   1.32611030645069E-01
(PID.TID 0000.0001)      cg2d_iters(min,last) =      -1     540
(PID.TID 0000.0001)      cg2d_last_res =   8.87771950325629E-08
(PID.TID 0000.0001) // =======================================================
(PID.TID 0000.0001) // Begin MONITOR dynamic field statistics
(PID.TID 0000.0001) // =======================================================
(PID.TID 0000.0001) %MON time_tsnumber                =                  1504
(PID.TID 0000.0001) %MON time_secondsf                =   8.1216000000000E+06
(PID.TID 0000.0001) %MON dynstat_eta_max              =   1.0356302907649E-08
(PID.TID 0000.0001) %MON dynstat_eta_min              =  -7.9211347115352E-09
(PID.TID 0000.0001) %MON dynstat_eta_mean             =   3.9135725499944E-13
(PID.TID 0000.0001) %MON dynstat_eta_sd               =   3.5006443625538E-09
(PID.TID 0000.0001) %MON dynstat_eta_del2             =   5.5504272046991E-14
(PID.TID 0000.0001) %MON dynstat_uvel_max             =   8.4108509982018E-09
(PID.TID 0000.0001) %MON dynstat_uvel_min             =  -9.3051410510068E-09
(PID.TID 0000.0001) %MON dynstat_uvel_mean            =  -2.9286738757179E-13
(PID.TID 0000.0001) %MON dynstat_uvel_sd              =   2.5299865169100E-09
(PID.TID 0000.0001) %MON dynstat_uvel_del2            =   1.0233490961934E-13
(PID.TID 0000.0001) %MON dynstat_vvel_max             =   1.2240267531733E-08
(PID.TID 0000.0001) %MON dynstat_vvel_min             =  -1.1103156658746E-08
(PID.TID 0000.0001) %MON dynstat_vvel_mean            =  -2.1704410145199E-14
(PID.TID 0000.0001) %MON dynstat_vvel_sd              =   3.3253694836578E-09
(PID.TID 0000.0001) %MON dynstat_vvel_del2            =   2.4382252179810E-13
(PID.TID 0000.0001) %MON dynstat_wvel_max             =   1.8760662964246E-14
(PID.TID 0000.0001) %MON dynstat_wvel_min             =  -1.6705889359647E-14
(PID.TID 0000.0001) %MON dynstat_wvel_mean            =  -2.2113081218780E-28
(PID.TID 0000.0001) %MON dynstat_wvel_sd              =   7.4627697961853E-15
(PID.TID 0000.0001) %MON dynstat_wvel_del2            =   6.1029244431387E-20
(PID.TID 0000.0001) %MON dynstat_theta_max            =   2.0000000000000E+01
(PID.TID 0000.0001) %MON dynstat_theta_min            =   2.0000000000000E+01
(PID.TID 0000.0001) %MON dynstat_theta_mean           =   2.0000000000000E+01
(PID.TID 0000.0001) %MON dynstat_theta_sd             =   0.0000000000000E+00
(PID.TID 0000.0001) %MON dynstat_theta_del2           =   0.0000000000000E+00
(PID.TID 0000.0001) %MON dynstat_salt_max             =   3.0000000000000E+01
(PID.TID 0000.0001) %MON dynstat_salt_min             =   3.0000000000000E+01
(PID.TID 0000.0001) %MON dynstat_salt_mean            =   3.0000000000000E+01
(PID.TID 0000.0001) %MON dynstat_salt_sd              =   0.0000000000000E+00
(PID.TID 0000.0001) %MON dynstat_salt_del2            =   0.0000000000000E+00
(PID.TID 0000.0001) %MON trAdv_CFL_u_max              =   1.0061829087089E-08
(PID.TID 0000.0001) %MON trAdv_CFL_v_max              =   1.3169994698158E-08
(PID.TID 0000.0001) %MON trAdv_CFL_w_max              =   2.0379206621435E-14
(PID.TID 0000.0001) %MON advcfl_uvel_max              =   1.0049552335087E-08
(PID.TID 0000.0001) %MON advcfl_vvel_max              =   1.3219488934272E-08
(PID.TID 0000.0001) %MON advcfl_wvel_max              =   4.0523032002771E-14
(PID.TID 0000.0001) %MON advcfl_W_hf_max              =   0.0000000000000E+00
(PID.TID 0000.0001) %MON pe_b_mean                    =   1.2021675395221E-20
(PID.TID 0000.0001) %MON ke_max                       =   7.4793216066370E-17
(PID.TID 0000.0001) %MON ke_mean                      =   8.6939714347230E-18
(PID.TID 0000.0001) %MON ke_vol                       =   7.5645000000000E+15
(PID.TID 0000.0001) %MON vort_r_min                   =  -5.3924138634987E-13
(PID.TID 0000.0001) %MON vort_r_max                   =   7.0717361057557E-13
(PID.TID 0000.0001) %MON vort_a_mean                  =   8.2299999999999E-05
(PID.TID 0000.0001) %MON vort_a_sd                    =   7.1297555115662E-06
(PID.TID 0000.0001) %MON vort_p_mean                  =   8.3303658536585E-05
(PID.TID 0000.0001) %MON vort_p_sd                    =   1.7411470228683E-05
(PID.TID 0000.0001) %MON surfExpan_theta_mean         =  -4.5638576378551E-27
(PID.TID 0000.0001) %MON surfExpan_salt_mean          =  -6.8239827347271E-27
(PID.TID 0000.0001) // =======================================================
(PID.TID 0000.0001) // End MONITOR dynamic field statistics
(PID.TID 0000.0001) // =======================================================
 cg2d: Sum(rhs),rhsMax =  -2.29632463769641E-03  1.76845006986653E-09
 cg2d: Sum(rhs),rhsMax =  -2.28897902933525E-03  1.77412553080492E-09
 cg2d: Sum(rhs),rhsMax =  -2.28175542441125E-03  1.77974236020770E-09
 cg2d: Sum(rhs),rhsMax =  -2.27465328848460E-03  1.78529951667795E-09
 cg2d: Sum(rhs),rhsMax =  -2.26767208290957E-03  1.79079597007698E-09
 cg2d: Sum(rhs),rhsMax =  -2.26081127564377E-03  1.79623070172384E-09
 cg2d: Sum(rhs),rhsMax =  -2.25407038883173E-03  1.80160270484162E-09
 cg2d: Sum(rhs),rhsMax =  -2.24744882429044E-03  1.80691098347288E-09
 cg2d: Sum(rhs),rhsMax =  -2.24094606349329E-03  1.81215455535874E-09
 cg2d: Sum(rhs),rhsMax =  -2.23456156699303E-03  1.81733244911404E-09
 cg2d: Sum(rhs),rhsMax =  -2.22829481531399E-03  1.82244370642627E-09
 cg2d: Sum(rhs),rhsMax =  -2.22214528327269E-03  1.82748738129089E-09
 cg2d: Sum(rhs),rhsMax =  -2.21611251005537E-03  1.83246254085533E-09
 cg2d: Sum(rhs),rhsMax =  -2.21019591876377E-03  1.83736826424564E-09
 cg2d: Sum(rhs),rhsMax =  -2.20439499671036E-03  1.84220364510817E-09
 cg2d: Sum(rhs),rhsMax =  -2.19870924110286E-03  1.84696778950859E-09
(PID.TID 0000.0001)      cg2d_init_res =   1.23681527295128E-01
(PID.TID 0000.0001)      cg2d_iters(min,last) =      -1     537
(PID.TID 0000.0001)      cg2d_last_res =   9.94325883849467E-08
(PID.TID 0000.0001) // =======================================================
(PID.TID 0000.0001) // Begin MONITOR dynamic field statistics
(PID.TID 0000.0001) // =======================================================
(PID.TID 0000.0001) %MON time_tsnumber                =                  1520
(PID.TID 0000.0001) %MON time_secondsf                =   8.2080000000000E+06
(PID.TID 0000.0001) %MON dynstat_eta_max              =   1.0113516698605E-08
(PID.TID 0000.0001) %MON dynstat_eta_min              =  -7.0514698860117E-09
(PID.TID 0000.0001) %MON dynstat_eta_mean             =   3.9135825738353E-13
(PID.TID 0000.0001) %MON dynstat_eta_sd               =   3.4739991295651E-09
(PID.TID 0000.0001) %MON dynstat_eta_del2             =   5.4874600086545E-14
(PID.TID 0000.0001) %MON dynstat_uvel_max             =   8.0631999198318E-09
(PID.TID 0000.0001) %MON dynstat_uvel_min             =  -9.1223737235221E-09
(PID.TID 0000.0001) %MON dynstat_uvel_mean            =  -2.4396788895690E-13
(PID.TID 0000.0001) %MON dynstat_uvel_sd              =   2.4631680636747E-09
(PID.TID 0000.0001) %MON dynstat_uvel_del2            =   9.8446528214728E-14
(PID.TID 0000.0001) %MON dynstat_vvel_max             =   1.2944221993299E-08
(PID.TID 0000.0001) %MON dynstat_vvel_min             =  -1.0380399730974E-08
(PID.TID 0000.0001) %MON dynstat_vvel_mean            =  -1.5279924563073E-14
(PID.TID 0000.0001) %MON dynstat_vvel_sd              =   3.3130543962620E-09
(PID.TID 0000.0001) %MON dynstat_vvel_del2            =   2.4370053406242E-13
(PID.TID 0000.0001) %MON dynstat_wvel_max             =   1.7033746846362E-14
(PID.TID 0000.0001) %MON dynstat_wvel_min             =  -1.8441559396232E-14
(PID.TID 0000.0001) %MON dynstat_wvel_mean            =  -1.1079289219121E-28
(PID.TID 0000.0001) %MON dynstat_wvel_sd              =   7.3620943613665E-15
(PID.TID 0000.0001) %MON dynstat_wvel_del2            =   6.0143414603879E-20
(PID.TID 0000.0001) %MON dynstat_theta_max            =   2.0000000000000E+01
(PID.TID 0000.0001) %MON dynstat_theta_min            =   2.0000000000000E+01
(PID.TID 0000.0001) %MON dynstat_theta_mean           =   2.0000000000000E+01
(PID.TID 0000.0001) %MON dynstat_theta_sd             =   0.0000000000000E+00
(PID.TID 0000.0001) %MON dynstat_theta_del2           =   0.0000000000000E+00
(PID.TID 0000.0001) %MON dynstat_salt_max             =   3.0000000000000E+01
(PID.TID 0000.0001) %MON dynstat_salt_min             =   3.0000000000000E+01
(PID.TID 0000.0001) %MON dynstat_salt_mean            =   3.0000000000000E+01
(PID.TID 0000.0001) %MON dynstat_salt_sd              =   0.0000000000000E+00
(PID.TID 0000.0001) %MON dynstat_salt_del2            =   0.0000000000000E+00
(PID.TID 0000.0001) %MON trAdv_CFL_u_max              =   9.8646900728673E-09
(PID.TID 0000.0001) %MON trAdv_CFL_v_max              =   1.3934340112204E-08
(PID.TID 0000.0001) %MON trAdv_CFL_w_max              =   1.8510207047129E-14
(PID.TID 0000.0001) %MON advcfl_uvel_max              =   9.8521636214038E-09
(PID.TID 0000.0001) %MON advcfl_vvel_max              =   1.3979759752763E-08
(PID.TID 0000.0001) %MON advcfl_wvel_max              =   3.9833768295860E-14
(PID.TID 0000.0001) %MON advcfl_W_hf_max              =   0.0000000000000E+00
(PID.TID 0000.0001) %MON pe_b_mean                    =   1.1839365373378E-20
(PID.TID 0000.0001) %MON ke_max                       =   8.3688339011335E-17
(PID.TID 0000.0001) %MON ke_mean                      =   8.4871218873000E-18
(PID.TID 0000.0001) %MON ke_vol                       =   7.5645000000000E+15
(PID.TID 0000.0001) %MON vort_r_min                   =  -4.9827195929184E-13
(PID.TID 0000.0001) %MON vort_r_max                   =   7.4486359874403E-13
(PID.TID 0000.0001) %MON vort_a_mean                  =   8.2300000000000E-05
(PID.TID 0000.0001) %MON vort_a_sd                    =   7.1297555115568E-06
(PID.TID 0000.0001) %MON vort_p_mean                  =   8.3303658536585E-05
(PID.TID 0000.0001) %MON vort_p_sd                    =   1.7411470228717E-05
(PID.TID 0000.0001) %MON surfExpan_theta_mean         =  -2.3393424689762E-27
(PID.TID 0000.0001) %MON surfExpan_salt_mean          =  -3.4794166792291E-27
(PID.TID 0000.0001) // =======================================================
(PID.TID 0000.0001) // End MONITOR dynamic field statistics
(PID.TID 0000.0001) // =======================================================
 cg2d: Sum(rhs),rhsMax =  -2.19313819374927E-03  1.85165981726889E-09
 cg2d: Sum(rhs),rhsMax =  -2.18768131100445E-03  1.85627886118581E-09
 cg2d: Sum(rhs),rhsMax =  -2.18233809912387E-03  1.86082406937078E-09
 cg2d: Sum(rhs),rhsMax =  -2.17710806711160E-03  1.86529460235391E-09
 cg2d: Sum(rhs),rhsMax =  -2.17199074395175E-03  1.86968963562827E-09
 cg2d: Sum(rhs),rhsMax =  -2.16698564779465E-03  1.87400835851465E-09
 cg2d: Sum(rhs),rhsMax =  -2.16209231289493E-03  1.87824997513394E-09
 cg2d: Sum(rhs),rhsMax =  -2.15731027856481E-03  1.88241370379673E-09
 cg2d: Sum(rhs),rhsMax =  -2.15263909301261E-03  1.88649877790218E-09
 cg2d: Sum(rhs),rhsMax =  -2.14807830858782E-03  1.89050444532619E-09
 cg2d: Sum(rhs),rhsMax =  -2.14362752041189E-03  1.89442997017561E-09
 cg2d: Sum(rhs),rhsMax =  -2.13928625529145E-03  1.89827462857580E-09
 cg2d: Sum(rhs),rhsMax =  -2.13505409692180E-03  1.90203771507782E-09
 cg2d: Sum(rhs),rhsMax =  -2.13093061963987E-03  1.90571853851197E-09
 cg2d: Sum(rhs),rhsMax =  -2.12691541788245E-03  1.90931642314343E-09
 cg2d: Sum(rhs),rhsMax =  -2.12300808653288E-03  1.91283070893683E-09
(PID.TID 0000.0001)      cg2d_init_res =   1.16401352251500E-01
(PID.TID 0000.0001)      cg2d_iters(min,last) =      -1     536
(PID.TID 0000.0001)      cg2d_last_res =   8.80177016826778E-08
(PID.TID 0000.0001) // =======================================================
(PID.TID 0000.0001) // Begin MONITOR dynamic field statistics
(PID.TID 0000.0001) // =======================================================
(PID.TID 0000.0001) %MON time_tsnumber                =                  1536
(PID.TID 0000.0001) %MON time_secondsf                =   8.2944000000000E+06
(PID.TID 0000.0001) %MON dynstat_eta_max              =   9.6923062650594E-09
(PID.TID 0000.0001) %MON dynstat_eta_min              =  -6.1701587373356E-09
(PID.TID 0000.0001) %MON dynstat_eta_mean             =   3.9135919192139E-13
(PID.TID 0000.0001) %MON dynstat_eta_sd               =   3.4416228348180E-09
(PID.TID 0000.0001) %MON dynstat_eta_del2             =   5.4323434375971E-14
(PID.TID 0000.0001) %MON dynstat_uvel_max             =   7.7333835471784E-09
(PID.TID 0000.0001) %MON dynstat_uvel_min             =  -8.9300471304763E-09
(PID.TID 0000.0001) %MON dynstat_uvel_mean            =  -1.8325568194191E-13
(PID.TID 0000.0001) %MON dynstat_uvel_sd              =   2.3925487308603E-09
(PID.TID 0000.0001) %MON dynstat_uvel_del2            =   9.6260973431445E-14
(PID.TID 0000.0001) %MON dynstat_vvel_max             =   1.3570629638910E-08
(PID.TID 0000.0001) %MON dynstat_vvel_min             =  -9.6677015839592E-09
(PID.TID 0000.0001) %MON dynstat_vvel_mean            =  -9.2732603626458E-15
(PID.TID 0000.0001) %MON dynstat_vvel_sd              =   3.3030806274646E-09
(PID.TID 0000.0001) %MON dynstat_vvel_del2            =   2.4282274156398E-13
(PID.TID 0000.0001) %MON dynstat_wvel_max             =   1.5342287542630E-14
(PID.TID 0000.0001) %MON dynstat_wvel_min             =  -1.9842214399324E-14
(PID.TID 0000.0001) %MON dynstat_wvel_mean            =   5.0491723005750E-28
(PID.TID 0000.0001) %MON dynstat_wvel_sd              =   7.2754506833757E-15
(PID.TID 0000.0001) %MON dynstat_wvel_del2            =   5.8881515029743E-20
(PID.TID 0000.0001) %MON dynstat_theta_max            =   2.0000000000000E+01
(PID.TID 0000.0001) %MON dynstat_theta_min            =   2.0000000000000E+01
(PID.TID 0000.0001) %MON dynstat_theta_mean           =   2.0000000000000E+01
(PID.TID 0000.0001) %MON dynstat_theta_sd             =   0.0000000000000E+00
(PID.TID 0000.0001) %MON dynstat_theta_del2           =   0.0000000000000E+00
(PID.TID 0000.0001) %MON dynstat_salt_max             =   3.0000000000000E+01
(PID.TID 0000.0001) %MON dynstat_salt_min             =   3.0000000000000E+01
(PID.TID 0000.0001) %MON dynstat_salt_mean            =   3.0000000000000E+01
(PID.TID 0000.0001) %MON dynstat_salt_sd              =   0.0000000000000E+00
(PID.TID 0000.0001) %MON dynstat_salt_del2            =   0.0000000000000E+00
(PID.TID 0000.0001) %MON trAdv_CFL_u_max              =   9.6570793873183E-09
(PID.TID 0000.0001) %MON trAdv_CFL_v_max              =   1.4617081473832E-08
(PID.TID 0000.0001) %MON trAdv_CFL_w_max              =   1.6683137373175E-14
(PID.TID 0000.0001) %MON advcfl_uvel_max              =   9.6444509009144E-09
(PID.TID 0000.0001) %MON advcfl_vvel_max              =   1.4656280010023E-08
(PID.TID 0000.0001) %MON advcfl_wvel_max              =   4.2859183102539E-14
(PID.TID 0000.0001) %MON advcfl_W_hf_max              =   0.0000000000000E+00
(PID.TID 0000.0001) %MON pe_b_mean                    =   1.1619717300387E-20
(PID.TID 0000.0001) %MON ke_max                       =   9.2038593077660E-17
(PID.TID 0000.0001) %MON ke_mean                      =   8.2835053215686E-18
(PID.TID 0000.0001) %MON ke_vol                       =   7.5645000000000E+15
(PID.TID 0000.0001) %MON vort_r_min                   =  -4.6061122842399E-13
(PID.TID 0000.0001) %MON vort_r_max                   =   7.7612472721098E-13
(PID.TID 0000.0001) %MON vort_a_mean                  =   8.2299999999999E-05
(PID.TID 0000.0001) %MON vort_a_sd                    =   7.1297555115669E-06
(PID.TID 0000.0001) %MON vort_p_mean                  =   8.3303658536585E-05
(PID.TID 0000.0001) %MON vort_p_sd                    =   1.7411470228738E-05
(PID.TID 0000.0001) %MON surfExpan_theta_mean         =   9.9150500082115E-27
(PID.TID 0000.0001) %MON surfExpan_salt_mean          =   1.4839959009029E-26
(PID.TID 0000.0001) // =======================================================
(PID.TID 0000.0001) // End MONITOR dynamic field statistics
(PID.TID 0000.0001) // =======================================================
 cg2d: Sum(rhs),rhsMax =  -2.11920823523390E-03  1.91626075158838E-09
 cg2d: Sum(rhs),rhsMax =  -2.11551548126207E-03  1.91960592264578E-09
 cg2d: Sum(rhs),rhsMax =  -2.11192948307750E-03  1.92286560977186E-09
 cg2d: Sum(rhs),rhsMax =  -2.10844983556718E-03  1.92603921616360E-09
 cg2d: Sum(rhs),rhsMax =  -2.10507618503666E-03  1.92912616211405E-09
 cg2d: Sum(rhs),rhsMax =  -2.10180825489248E-03  1.93212588323063E-09
 cg2d: Sum(rhs),rhsMax =  -2.09864562414463E-03  1.93503783253276E-09
 cg2d: Sum(rhs),rhsMax =  -2.09553658017715E-03  1.93790902531632E-09
 cg2d: Sum(rhs),rhsMax =  -2.09252577531367E-03  1.94069760614693E-09
 cg2d: Sum(rhs),rhsMax =  -2.08961966466421E-03  1.94339683182022E-09
 cg2d: Sum(rhs),rhsMax =  -2.08681795266339E-03  1.94600622371087E-09
 cg2d: Sum(rhs),rhsMax =  -2.08412044650458E-03  1.94852531976964E-09
 cg2d: Sum(rhs),rhsMax =  -2.08152671386501E-03  1.95095367759627E-09
 cg2d: Sum(rhs),rhsMax =  -2.07903642754029E-03  1.95329086618283E-09
 cg2d: Sum(rhs),rhsMax =  -2.07664931611840E-03  1.95553647537530E-09
 cg2d: Sum(rhs),rhsMax =  -2.07436511124623E-03  1.95769011106292E-09
(PID.TID 0000.0001)      cg2d_init_res =   1.10775409152858E-01
(PID.TID 0000.0001)      cg2d_iters(min,last) =      -1     525
(PID.TID 0000.0001)      cg2d_last_res =   9.91412485194878E-08
(PID.TID 0000.0001) // =======================================================
(PID.TID 0000.0001) // Begin MONITOR dynamic field statistics
(PID.TID 0000.0001) // =======================================================
(PID.TID 0000.0001) %MON time_tsnumber                =                  1552
(PID.TID 0000.0001) %MON time_secondsf                =   8.3808000000000E+06
(PID.TID 0000.0001) %MON dynstat_eta_max              =   9.1119282688953E-09
(PID.TID 0000.0001) %MON dynstat_eta_min              =  -6.3000399517141E-09
(PID.TID 0000.0001) %MON dynstat_eta_mean             =   3.9136007086784E-13
(PID.TID 0000.0001) %MON dynstat_eta_sd               =   3.4016865778857E-09
(PID.TID 0000.0001) %MON dynstat_eta_del2             =   5.3837102342391E-14
(PID.TID 0000.0001) %MON dynstat_uvel_max             =   7.6592861675613E-09
(PID.TID 0000.0001) %MON dynstat_uvel_min             =  -8.7330906571872E-09
(PID.TID 0000.0001) %MON dynstat_uvel_mean            =  -1.1424565530252E-13
(PID.TID 0000.0001) %MON dynstat_uvel_sd              =   2.3220266030820E-09
(PID.TID 0000.0001) %MON dynstat_uvel_del2            =   9.5801329064466E-14
(PID.TID 0000.0001) %MON dynstat_vvel_max             =   1.4090717446131E-08
(PID.TID 0000.0001) %MON dynstat_vvel_min             =  -9.5436864993642E-09
(PID.TID 0000.0001) %MON dynstat_vvel_mean            =  -3.8996698043547E-15
(PID.TID 0000.0001) %MON dynstat_vvel_sd              =   3.2923966717534E-09
(PID.TID 0000.0001) %MON dynstat_vvel_del2            =   2.4109515273489E-13
(PID.TID 0000.0001) %MON dynstat_wvel_max             =   1.3610705665856E-14
(PID.TID 0000.0001) %MON dynstat_wvel_min             =  -2.0862534746424E-14
(PID.TID 0000.0001) %MON dynstat_wvel_mean            =   5.5894740512274E-28
(PID.TID 0000.0001) %MON dynstat_wvel_sd              =   7.2093267459120E-15
(PID.TID 0000.0001) %MON dynstat_wvel_del2            =   5.7665711412730E-20
(PID.TID 0000.0001) %MON dynstat_theta_max            =   2.0000000000000E+01
(PID.TID 0000.0001) %MON dynstat_theta_min            =   2.0000000000000E+01
(PID.TID 0000.0001) %MON dynstat_theta_mean           =   2.0000000000000E+01
(PID.TID 0000.0001) %MON dynstat_theta_sd             =   0.0000000000000E+00
(PID.TID 0000.0001) %MON dynstat_theta_del2           =   0.0000000000000E+00
(PID.TID 0000.0001) %MON dynstat_salt_max             =   3.0000000000000E+01
(PID.TID 0000.0001) %MON dynstat_salt_min             =   3.0000000000000E+01
(PID.TID 0000.0001) %MON dynstat_salt_mean            =   3.0000000000000E+01
(PID.TID 0000.0001) %MON dynstat_salt_sd              =   0.0000000000000E+00
(PID.TID 0000.0001) %MON dynstat_salt_del2            =   0.0000000000000E+00
(PID.TID 0000.0001) %MON trAdv_CFL_u_max              =   9.4455960045433E-09
(PID.TID 0000.0001) %MON trAdv_CFL_v_max              =   1.5186373218083E-08
(PID.TID 0000.0001) %MON trAdv_CFL_w_max              =   1.4818013156503E-14
(PID.TID 0000.0001) %MON advcfl_uvel_max              =   9.4317379097622E-09
(PID.TID 0000.0001) %MON advcfl_vvel_max              =   1.5217974841821E-08
(PID.TID 0000.0001) %MON advcfl_wvel_max              =   4.5063075052276E-14
(PID.TID 0000.0001) %MON advcfl_W_hf_max              =   0.0000000000000E+00
(PID.TID 0000.0001) %MON pe_b_mean                    =   1.1351613764511E-20
(PID.TID 0000.0001) %MON ke_max                       =   9.9267952855493E-17
(PID.TID 0000.0001) %MON ke_mean                      =   8.0828504749023E-18
(PID.TID 0000.0001) %MON ke_vol                       =   7.5645000000000E+15
(PID.TID 0000.0001) %MON vort_r_min                   =  -4.2788503348695E-13
(PID.TID 0000.0001) %MON vort_r_max                   =   7.9948137317374E-13
(PID.TID 0000.0001) %MON vort_a_mean                  =   8.2300000000000E-05
(PID.TID 0000.0001) %MON vort_a_sd                    =   7.1297555115556E-06
(PID.TID 0000.0001) %MON vort_p_mean                  =   8.3303658536586E-05
(PID.TID 0000.0001) %MON vort_p_sd                    =   1.7411470228732E-05
(PID.TID 0000.0001) %MON surfExpan_theta_mean         =   1.1070391974742E-26
(PID.TID 0000.0001) %MON surfExpan_salt_mean          =   1.6622872383520E-26
(PID.TID 0000.0001) // =======================================================
(PID.TID 0000.0001) // End MONITOR dynamic field statistics
(PID.TID 0000.0001) // =======================================================
 cg2d: Sum(rhs),rhsMax =  -2.07218359177701E-03  1.95975139563665E-09
 cg2d: Sum(rhs),rhsMax =  -2.07010447319267E-03  1.96171997057026E-09
 cg2d: Sum(rhs),rhsMax =  -2.06812752883081E-03  1.96359549237140E-09
 cg2d: Sum(rhs),rhsMax =  -2.06625249531996E-03  1.96537763635025E-09
 cg2d: Sum(rhs),rhsMax =  -2.06447919653043E-03  1.96706609319713E-09
 cg2d: Sum(rhs),rhsMax =  -2.06280742165339E-03  1.96866057282995E-09
 cg2d: Sum(rhs),rhsMax =  -2.06123697812238E-03  1.97016080178710E-09
 cg2d: Sum(rhs),rhsMax =  -2.05976768204519E-03  1.97156652406219E-09
 cg2d: Sum(rhs),rhsMax =  -2.05839932322041E-03  1.97287750047657E-09
 cg2d: Sum(rhs),rhsMax =  -2.05713161449636E-03  1.97409351299698E-09
 cg2d: Sum(rhs),rhsMax =  -2.05596454236960E-03  1.97521435269949E-09
 cg2d: Sum(rhs),rhsMax =  -2.05489792814602E-03  1.97623983781188E-09
 cg2d: Sum(rhs),rhsMax =  -2.05393166373779E-03  1.97716979761419E-09
 cg2d: Sum(rhs),rhsMax =  -2.05306562927169E-03  1.97800408214814E-09
 cg2d: Sum(rhs),rhsMax =  -2.05229966686182E-03  1.97874255819820E-09
 cg2d: Sum(rhs),rhsMax =  -2.05163370731898E-03  1.97938510851802E-09
(PID.TID 0000.0001)      cg2d_init_res =   1.06861125862138E-01
(PID.TID 0000.0001)      cg2d_iters(min,last) =      -1     534
(PID.TID 0000.0001)      cg2d_last_res =   9.74026976966226E-08
(PID.TID 0000.0001) // =======================================================
(PID.TID 0000.0001) // Begin MONITOR dynamic field statistics
(PID.TID 0000.0001) // =======================================================
(PID.TID 0000.0001) %MON time_tsnumber                =                  1568
(PID.TID 0000.0001) %MON time_secondsf                =   8.4672000000000E+06
(PID.TID 0000.0001) %MON dynstat_eta_max              =   9.4282632284610E-09
(PID.TID 0000.0001) %MON dynstat_eta_min              =  -6.5540300955778E-09
(PID.TID 0000.0001) %MON dynstat_eta_mean             =   3.9136093695326E-13
(PID.TID 0000.0001) %MON dynstat_eta_sd               =   3.3536560323942E-09
(PID.TID 0000.0001) %MON dynstat_eta_del2             =   5.3395656084426E-14
(PID.TID 0000.0001) %MON dynstat_uvel_max             =   7.5705084159116E-09
(PID.TID 0000.0001) %MON dynstat_uvel_min             =  -8.5316739051698E-09
(PID.TID 0000.0001) %MON dynstat_uvel_mean            =  -4.0844543649657E-14
(PID.TID 0000.0001) %MON dynstat_uvel_sd              =   2.2555318373988E-09
(PID.TID 0000.0001) %MON dynstat_uvel_del2            =   9.6756412294727E-14
(PID.TID 0000.0001) %MON dynstat_vvel_max             =   1.4485065793142E-08
(PID.TID 0000.0001) %MON dynstat_vvel_min             =  -9.6725112869643E-09
(PID.TID 0000.0001) %MON dynstat_vvel_mean            =   6.8082123266599E-16
(PID.TID 0000.0001) %MON dynstat_vvel_sd              =   3.2782729518270E-09
(PID.TID 0000.0001) %MON dynstat_vvel_del2            =   2.3853323441767E-13
(PID.TID 0000.0001) %MON dynstat_wvel_max             =   1.1803083593831E-14
(PID.TID 0000.0001) %MON dynstat_wvel_min             =  -2.1473145594975E-14
(PID.TID 0000.0001) %MON dynstat_wvel_mean            =   1.0657161993742E-28
(PID.TID 0000.0001) %MON dynstat_wvel_sd              =   7.1660371878680E-15
(PID.TID 0000.0001) %MON dynstat_wvel_del2            =   5.6278031350427E-20
(PID.TID 0000.0001) %MON dynstat_theta_max            =   2.0000000000000E+01
(PID.TID 0000.0001) %MON dynstat_theta_min            =   2.0000000000000E+01
(PID.TID 0000.0001) %MON dynstat_theta_mean           =   2.0000000000000E+01
(PID.TID 0000.0001) %MON dynstat_theta_sd             =   0.0000000000000E+00
(PID.TID 0000.0001) %MON dynstat_theta_del2           =   0.0000000000000E+00
(PID.TID 0000.0001) %MON dynstat_salt_max             =   3.0000000000000E+01
(PID.TID 0000.0001) %MON dynstat_salt_min             =   3.0000000000000E+01
(PID.TID 0000.0001) %MON dynstat_salt_mean            =   3.0000000000000E+01
(PID.TID 0000.0001) %MON dynstat_salt_sd              =   0.0000000000000E+00
(PID.TID 0000.0001) %MON dynstat_salt_del2            =   0.0000000000000E+00
(PID.TID 0000.0001) %MON trAdv_CFL_u_max              =   9.2279182020441E-09
(PID.TID 0000.0001) %MON trAdv_CFL_v_max              =   1.5621846828889E-08
(PID.TID 0000.0001) %MON trAdv_CFL_w_max              =   1.2869364839396E-14
(PID.TID 0000.0001) %MON advcfl_uvel_max              =   9.2142078175834E-09
(PID.TID 0000.0001) %MON advcfl_vvel_max              =   1.5643871056593E-08
(PID.TID 0000.0001) %MON advcfl_wvel_max              =   4.6381994485145E-14
(PID.TID 0000.0001) %MON advcfl_W_hf_max              =   0.0000000000000E+00
(PID.TID 0000.0001) %MON pe_b_mean                    =   1.1033315766979E-20
(PID.TID 0000.0001) %MON ke_max                       =   1.0485090443191E-16
(PID.TID 0000.0001) %MON ke_mean                      =   7.8850647710931E-18
(PID.TID 0000.0001) %MON ke_vol                       =   7.5645000000000E+15
(PID.TID 0000.0001) %MON vort_r_min                   =  -4.0125103360992E-13
(PID.TID 0000.0001) %MON vort_r_max                   =   8.1388940970128E-13
(PID.TID 0000.0001) %MON vort_a_mean                  =   8.2300000000001E-05
(PID.TID 0000.0001) %MON vort_a_sd                    =   7.1297555115442E-06
(PID.TID 0000.0001) %MON vort_p_mean                  =   8.3303658536587E-05
(PID.TID 0000.0001) %MON vort_p_sd                    =   1.7411470228713E-05
(PID.TID 0000.0001) %MON surfExpan_theta_mean         =   2.0679809160047E-27
(PID.TID 0000.0001) %MON surfExpan_salt_mean          =   3.1771333008383E-27
(PID.TID 0000.0001) // =======================================================
(PID.TID 0000.0001) // End MONITOR dynamic field statistics
(PID.TID 0000.0001) // =======================================================
 cg2d: Sum(rhs),rhsMax =  -2.05106762243961E-03  1.97993163673779E-09
 cg2d: Sum(rhs),rhsMax =  -2.05060136689693E-03  1.98038206007314E-09
 cg2d: Sum(rhs),rhsMax =  -2.05023482852166E-03  1.98073631648912E-09
 cg2d: Sum(rhs),rhsMax =  -2.04996798875413E-03  1.98099436006204E-09
 cg2d: Sum(rhs),rhsMax =  -2.04980079197617E-03  1.98115616273209E-09
 cg2d: Sum(rhs),rhsMax =  -2.04973320172077E-03  1.98122171421306E-09
 cg2d: Sum(rhs),rhsMax =  -2.04976518903146E-03  1.98119102075867E-09
 cg2d: Sum(rhs),rhsMax =  -2.04989673706859E-03  1.98106410735735E-09
 cg2d: Sum(rhs),rhsMax =  -2.05012784140092E-03  1.98084101518633E-09
 cg2d: Sum(rhs),rhsMax =  -2.05045850548981E-03  1.98052180407337E-09
 cg2d: Sum(rhs),rhsMax =  -2.05088874789318E-03  1.98010655001155E-09
 cg2d: Sum(rhs),rhsMax =  -2.05141859604491E-03  1.97959534751728E-09
 cg2d: Sum(rhs),rhsMax =  -2.05204808914376E-03  1.97898830726555E-09
 cg2d: Sum(rhs),rhsMax =  -2.05277727095799E-03  1.97828555828418E-09
 cg2d: Sum(rhs),rhsMax =  -2.05360620575519E-03  1.97748724575503E-09
 cg2d: Sum(rhs),rhsMax =  -2.05453496687459E-03  1.97659353301596E-09
(PID.TID 0000.0001)      cg2d_init_res =   1.04734684176111E-01
(PID.TID 0000.0001)      cg2d_iters(min,last) =      -1     535
(PID.TID 0000.0001)      cg2d_last_res =   9.29604033611687E-08
(PID.TID 0000.0001) // =======================================================
(PID.TID 0000.0001) // Begin MONITOR dynamic field statistics
(PID.TID 0000.0001) // =======================================================
(PID.TID 0000.0001) %MON time_tsnumber                =                  1584
(PID.TID 0000.0001) %MON time_secondsf                =   8.5536000000000E+06
(PID.TID 0000.0001) %MON dynstat_eta_max              =   9.7242411451203E-09
(PID.TID 0000.0001) %MON dynstat_eta_min              =  -7.5014073912683E-09
(PID.TID 0000.0001) %MON dynstat_eta_mean             =   3.9136164019435E-13
(PID.TID 0000.0001) %MON dynstat_eta_sd               =   3.2984374130993E-09
(PID.TID 0000.0001) %MON dynstat_eta_del2             =   5.2976064199338E-14
(PID.TID 0000.0001) %MON dynstat_uvel_max             =   7.4603377443050E-09
(PID.TID 0000.0001) %MON dynstat_uvel_min             =  -8.3207450338444E-09
(PID.TID 0000.0001) %MON dynstat_uvel_mean            =   3.2868358343888E-14
(PID.TID 0000.0001) %MON dynstat_uvel_sd              =   2.1962268116131E-09
(PID.TID 0000.0001) %MON dynstat_uvel_del2            =   9.8595382209209E-14
(PID.TID 0000.0001) %MON dynstat_vvel_max             =   1.4728835385856E-08
(PID.TID 0000.0001) %MON dynstat_vvel_min             =  -9.6629855330112E-09
(PID.TID 0000.0001) %MON dynstat_vvel_mean            =   4.3691339215436E-15
(PID.TID 0000.0001) %MON dynstat_vvel_sd              =   3.2588053307529E-09
(PID.TID 0000.0001) %MON dynstat_vvel_del2            =   2.3524758445566E-13
(PID.TID 0000.0001) %MON dynstat_wvel_max             =   9.9292110311566E-15
(PID.TID 0000.0001) %MON dynstat_wvel_min             =  -2.1670753517222E-14
(PID.TID 0000.0001) %MON dynstat_wvel_mean            =   5.3064575107798E-28
(PID.TID 0000.0001) %MON dynstat_wvel_sd              =   7.1431538051302E-15
(PID.TID 0000.0001) %MON dynstat_wvel_del2            =   5.5001758464977E-20
(PID.TID 0000.0001) %MON dynstat_theta_max            =   2.0000000000000E+01
(PID.TID 0000.0001) %MON dynstat_theta_min            =   2.0000000000000E+01
(PID.TID 0000.0001) %MON dynstat_theta_mean           =   2.0000000000000E+01
(PID.TID 0000.0001) %MON dynstat_theta_sd             =   0.0000000000000E+00
(PID.TID 0000.0001) %MON dynstat_theta_del2           =   0.0000000000000E+00
(PID.TID 0000.0001) %MON dynstat_salt_max             =   3.0000000000000E+01
(PID.TID 0000.0001) %MON dynstat_salt_min             =   3.0000000000000E+01
(PID.TID 0000.0001) %MON dynstat_salt_mean            =   3.0000000000000E+01
(PID.TID 0000.0001) %MON dynstat_salt_sd              =   0.0000000000000E+00
(PID.TID 0000.0001) %MON dynstat_salt_del2            =   0.0000000000000E+00
(PID.TID 0000.0001) %MON trAdv_CFL_u_max              =   9.0010886732391E-09
(PID.TID 0000.0001) %MON trAdv_CFL_v_max              =   1.5895725986450E-08
(PID.TID 0000.0001) %MON trAdv_CFL_w_max              =   1.0853185989124E-14
(PID.TID 0000.0001) %MON advcfl_uvel_max              =   8.9864046365520E-09
(PID.TID 0000.0001) %MON advcfl_vvel_max              =   1.5907142216725E-08
(PID.TID 0000.0001) %MON advcfl_wvel_max              =   4.6808827597200E-14
(PID.TID 0000.0001) %MON advcfl_W_hf_max              =   0.0000000000000E+00
(PID.TID 0000.0001) %MON pe_b_mean                    =   1.0672975420393E-20
(PID.TID 0000.0001) %MON ke_max                       =   1.0836038705574E-16
(PID.TID 0000.0001) %MON ke_mean                      =   7.6902235289804E-18
(PID.TID 0000.0001) %MON ke_vol                       =   7.5645000000000E+15
(PID.TID 0000.0001) %MON vort_r_min                   =  -3.8153116205736E-13
(PID.TID 0000.0001) %MON vort_r_max                   =   8.1892916025127E-13
(PID.TID 0000.0001) %MON vort_a_mean                  =   8.2300000000000E-05
(PID.TID 0000.0001) %MON vort_a_sd                    =   7.1297555115555E-06
(PID.TID 0000.0001) %MON vort_p_mean                  =   8.3303658536585E-05
(PID.TID 0000.0001) %MON vort_p_sd                    =   1.7411470228691E-05
(PID.TID 0000.0001) %MON surfExpan_theta_mean         =   1.0630691791435E-26
(PID.TID 0000.0001) %MON surfExpan_salt_mean          =   1.5973067270488E-26
(PID.TID 0000.0001) // =======================================================
(PID.TID 0000.0001) // End MONITOR dynamic field statistics
(PID.TID 0000.0001) // =======================================================
 cg2d: Sum(rhs),rhsMax =  -2.05556363438987E-03  1.97560459955077E-09
 cg2d: Sum(rhs),rhsMax =  -2.05669230380449E-03  1.97452064277911E-09
 cg2d: Sum(rhs),rhsMax =  -2.05792107482010E-03  1.97334187625373E-09
 cg2d: Sum(rhs),rhsMax =  -2.05925010172925E-03  1.97206853128492E-09
 cg2d: Sum(rhs),rhsMax =  -2.06067947203040E-03  1.97070085540056E-09
 cg2d: Sum(rhs),rhsMax =  -2.06220936291610E-03  1.96923911246566E-09
 cg2d: Sum(rhs),rhsMax =  -2.06383988141565E-03  1.96768358466781E-09
 cg2d: Sum(rhs),rhsMax =  -2.06557118783846E-03  1.96603456916226E-09
 cg2d: Sum(rhs),rhsMax =  -2.06740348884439E-03  1.96429238018847E-09
 cg2d: Sum(rhs),rhsMax =  -2.06933692808582E-03  1.96245734910994E-09
 cg2d: Sum(rhs),rhsMax =  -2.07137169565873E-03  1.96052982229458E-09
 cg2d: Sum(rhs),rhsMax =  -2.07350799942156E-03  1.95851016339028E-09
 cg2d: Sum(rhs),rhsMax =  -2.07574604540846E-03  1.95639875178292E-09
 cg2d: Sum(rhs),rhsMax =  -2.07808606244985E-03  1.95419598308338E-09
 cg2d: Sum(rhs),rhsMax =  -2.08052831502914E-03  1.95190226859312E-09
 cg2d: Sum(rhs),rhsMax =  -2.08307301892329E-03  1.94951803629383E-09
(PID.TID 0000.0001)      cg2d_init_res =   1.04446380961279E-01
(PID.TID 0000.0001)      cg2d_iters(min,last) =      -1     531
(PID.TID 0000.0001)      cg2d_last_res =   9.45799593044016E-08
(PID.TID 0000.0001) // =======================================================
(PID.TID 0000.0001) // Begin MONITOR dynamic field statistics
(PID.TID 0000.0001) // =======================================================
(PID.TID 0000.0001) %MON time_tsnumber                =                  1600
(PID.TID 0000.0001) %MON time_secondsf                =   8.6400000000000E+06
(PID.TID 0000.0001) %MON dynstat_eta_max              =   9.8913303132947E-09
(PID.TID 0000.0001) %MON dynstat_eta_min              =  -8.3252025184170E-09
(PID.TID 0000.0001) %MON dynstat_eta_mean             =   3.9136240330592E-13
(PID.TID 0000.0001) %MON dynstat_eta_sd               =   3.2382830734165E-09
(PID.TID 0000.0001) %MON dynstat_eta_del2             =   5.2555555437395E-14
(PID.TID 0000.0001) %MON dynstat_uvel_max             =   7.3274619552429E-09
(PID.TID 0000.0001) %MON dynstat_uvel_min             =  -8.1125836809168E-09
(PID.TID 0000.0001) %MON dynstat_uvel_mean            =   1.0286636529035E-13
(PID.TID 0000.0001) %MON dynstat_uvel_sd              =   2.1458352961221E-09
(PID.TID 0000.0001) %MON dynstat_uvel_del2            =   1.0073478236369E-13
(PID.TID 0000.0001) %MON dynstat_vvel_max             =   1.4810571161586E-08
(PID.TID 0000.0001) %MON dynstat_vvel_min             =  -9.5208556254442E-09
(PID.TID 0000.0001) %MON dynstat_vvel_mean            =   7.1294961702739E-15
(PID.TID 0000.0001) %MON dynstat_vvel_sd              =   3.2332149162149E-09
(PID.TID 0000.0001) %MON dynstat_vvel_del2            =   2.3141722253194E-13
(PID.TID 0000.0001) %MON dynstat_wvel_max             =   9.0759312576516E-15
(PID.TID 0000.0001) %MON dynstat_wvel_min             =  -2.1458254619855E-14
(PID.TID 0000.0001) %MON dynstat_wvel_mean            =  -2.6483830618016E-28
(PID.TID 0000.0001) %MON dynstat_wvel_sd              =   7.1340468313303E-15
(PID.TID 0000.0001) %MON dynstat_wvel_del2            =   5.3901378028580E-20
(PID.TID 0000.0001) %MON dynstat_theta_max            =   2.0000000000000E+01
(PID.TID 0000.0001) %MON dynstat_theta_min            =   2.0000000000000E+01
(PID.TID 0000.0001) %MON dynstat_theta_mean           =   2.0000000000000E+01
(PID.TID 0000.0001) %MON dynstat_theta_sd             =   0.0000000000000E+00
(PID.TID 0000.0001) %MON dynstat_theta_del2           =   0.0000000000000E+00
(PID.TID 0000.0001) %MON dynstat_salt_max             =   3.0000000000000E+01
(PID.TID 0000.0001) %MON dynstat_salt_min             =   3.0000000000000E+01
(PID.TID 0000.0001) %MON dynstat_salt_mean            =   3.0000000000000E+01
(PID.TID 0000.0001) %MON dynstat_salt_sd              =   0.0000000000000E+00
(PID.TID 0000.0001) %MON dynstat_salt_del2            =   0.0000000000000E+00
(PID.TID 0000.0001) %MON trAdv_CFL_u_max              =   8.7759656993755E-09
(PID.TID 0000.0001) %MON trAdv_CFL_v_max              =   1.5995149769386E-08
(PID.TID 0000.0001) %MON trAdv_CFL_w_max              =   9.7300926977573E-15
(PID.TID 0000.0001) %MON advcfl_uvel_max              =   8.7615903753901E-09
(PID.TID 0000.0001) %MON advcfl_vvel_max              =   1.5995416854513E-08
(PID.TID 0000.0001) %MON advcfl_wvel_max              =   4.6349829978887E-14
(PID.TID 0000.0001) %MON advcfl_W_hf_max              =   0.0000000000000E+00
(PID.TID 0000.0001) %MON pe_b_mean                    =   1.0287234345822E-20
(PID.TID 0000.0001) %MON ke_max                       =   1.0953871665669E-16
(PID.TID 0000.0001) %MON ke_mean                      =   7.4985376355116E-18
(PID.TID 0000.0001) %MON ke_vol                       =   7.5645000000000E+15
(PID.TID 0000.0001) %MON vort_r_min                   =  -3.6916944207578E-13
(PID.TID 0000.0001) %MON vort_r_max                   =   8.1409341260888E-13
(PID.TID 0000.0001) %MON vort_a_mean                  =   8.2300000000000E-05
(PID.TID 0000.0001) %MON vort_a_sd                    =   7.1297555115560E-06
(PID.TID 0000.0001) %MON vort_p_mean                  =   8.3303658536585E-05
(PID.TID 0000.0001) %MON vort_p_sd                    =   1.7411470228659E-05
(PID.TID 0000.0001) %MON surfExpan_theta_mean         =  -5.2567304767344E-27
(PID.TID 0000.0001) %MON surfExpan_salt_mean          =  -7.8559285339130E-27
(PID.TID 0000.0001) // =======================================================
(PID.TID 0000.0001) // End MONITOR dynamic field statistics
(PID.TID 0000.0001) // =======================================================
 cg2d: Sum(rhs),rhsMax =  -2.08572043332500E-03  1.94704372853252E-09
 cg2d: Sum(rhs),rhsMax =  -2.08847082009522E-03  1.94447980444408E-09
 cg2d: Sum(rhs),rhsMax =  -2.09132445865888E-03  1.94182673805900E-09
 cg2d: Sum(rhs),rhsMax =  -2.09428163994993E-03  1.93908501912054E-09
 cg2d: Sum(rhs),rhsMax =  -2.09734269672227E-03  1.93625515164333E-09
 cg2d: Sum(rhs),rhsMax =  -2.10050790210937E-03  1.93333765744974E-09
 cg2d: Sum(rhs),rhsMax =  -2.10377757690276E-03  1.93033307043202E-09
 cg2d: Sum(rhs),rhsMax =  -2.10715205343114E-03  1.92724194071048E-09
 cg2d: Sum(rhs),rhsMax =  -2.11063167740365E-03  1.92406483282227E-09
 cg2d: Sum(rhs),rhsMax =  -2.11421679682668E-03  1.92080232610753E-09
 cg2d: Sum(rhs),rhsMax =  -2.11790777546179E-03  1.91745501426351E-09
 cg2d: Sum(rhs),rhsMax =  -2.12170498447936E-03  1.91402350538914E-09
 cg2d: Sum(rhs),rhsMax =  -2.12560880744881E-03  1.91050842170743E-09
 cg2d: Sum(rhs),rhsMax =  -2.12961963581970E-03  1.90691039951321E-09
 cg2d: Sum(rhs),rhsMax =  -2.13373788106162E-03  1.90323008894991E-09
 cg2d: Sum(rhs),rhsMax =  -2.13796394873526E-03  1.89946815391063E-09
(PID.TID 0000.0001)      cg2d_init_res =   1.06032511862253E-01
(PID.TID 0000.0001)      cg2d_iters(min,last) =      -1     530
(PID.TID 0000.0001)      cg2d_last_res =   9.08115610143259E-08
(PID.TID 0000.0001) // =======================================================
(PID.TID 0000.0001) // Begin MONITOR dynamic field statistics
(PID.TID 0000.0001) // =======================================================
(PID.TID 0000.0001) %MON time_tsnumber                =                  1616
(PID.TID 0000.0001) %MON time_secondsf                =   8.7264000000000E+06
(PID.TID 0000.0001) %MON dynstat_eta_max              =   9.9210008988159E-09
(PID.TID 0000.0001) %MON dynstat_eta_min              =  -9.0058932636483E-09
(PID.TID 0000.0001) %MON dynstat_eta_mean             =   3.9136296579214E-13
(PID.TID 0000.0001) %MON dynstat_eta_sd               =   3.1764592394934E-09
(PID.TID 0000.0001) %MON dynstat_eta_del2             =   5.2114534782584E-14
(PID.TID 0000.0001) %MON dynstat_uvel_max             =   7.1717597980495E-09
(PID.TID 0000.0001) %MON dynstat_uvel_min             =  -7.8932591917250E-09
(PID.TID 0000.0001) %MON dynstat_uvel_mean            =   1.6539531771080E-13
(PID.TID 0000.0001) %MON dynstat_uvel_sd              =   2.1042919153011E-09
(PID.TID 0000.0001) %MON dynstat_uvel_del2            =   1.0267847086495E-13
(PID.TID 0000.0001) %MON dynstat_vvel_max             =   1.4726246381300E-08
(PID.TID 0000.0001) %MON dynstat_vvel_min             =  -9.2451272885820E-09
(PID.TID 0000.0001) %MON dynstat_vvel_mean            =   8.9882398875582E-15
(PID.TID 0000.0001) %MON dynstat_vvel_sd              =   3.2019127750960E-09
(PID.TID 0000.0001) %MON dynstat_vvel_del2            =   2.2725497666695E-13
(PID.TID 0000.0001) %MON dynstat_wvel_max             =   1.0044240031926E-14
(PID.TID 0000.0001) %MON dynstat_wvel_min             =  -2.0863206104949E-14
(PID.TID 0000.0001) %MON dynstat_wvel_mean            =   1.0548895137102E-27
(PID.TID 0000.0001) %MON dynstat_wvel_sd              =   7.1293765354962E-15
(PID.TID 0000.0001) %MON dynstat_wvel_del2            =   5.2942341659704E-20
(PID.TID 0000.0001) %MON dynstat_theta_max            =   2.0000000000000E+01
(PID.TID 0000.0001) %MON dynstat_theta_min            =   2.0000000000000E+01
(PID.TID 0000.0001) %MON dynstat_theta_mean           =   2.0000000000000E+01
(PID.TID 0000.0001) %MON dynstat_theta_sd             =   0.0000000000000E+00
(PID.TID 0000.0001) %MON dynstat_theta_del2           =   0.0000000000000E+00
(PID.TID 0000.0001) %MON dynstat_salt_max             =   3.0000000000000E+01
(PID.TID 0000.0001) %MON dynstat_salt_min             =   3.0000000000000E+01
(PID.TID 0000.0001) %MON dynstat_salt_mean            =   3.0000000000000E+01
(PID.TID 0000.0001) %MON dynstat_salt_sd              =   0.0000000000000E+00
(PID.TID 0000.0001) %MON dynstat_salt_del2            =   0.0000000000000E+00
(PID.TID 0000.0001) %MON trAdv_CFL_u_max              =   8.5398894697487E-09
(PID.TID 0000.0001) %MON trAdv_CFL_v_max              =   1.5915261568763E-08
(PID.TID 0000.0001) %MON trAdv_CFL_w_max              =   1.0790026771068E-14
(PID.TID 0000.0001) %MON advcfl_uvel_max              =   8.5247199270630E-09
(PID.TID 0000.0001) %MON advcfl_vvel_max              =   1.5904346091804E-08
(PID.TID 0000.0001) %MON advcfl_wvel_max              =   4.5064525186689E-14
(PID.TID 0000.0001) %MON advcfl_W_hf_max              =   0.0000000000000E+00
(PID.TID 0000.0001) %MON pe_b_mean                    =   9.8981854777144E-21
(PID.TID 0000.0001) %MON ke_max                       =   1.0834516732468E-16
(PID.TID 0000.0001) %MON ke_mean                      =   7.3103069681554E-18
(PID.TID 0000.0001) %MON ke_vol                       =   7.5645000000000E+15
(PID.TID 0000.0001) %MON vort_r_min                   =  -3.6431943807896E-13
(PID.TID 0000.0001) %MON vort_r_max                   =   7.9962500420518E-13
(PID.TID 0000.0001) %MON vort_a_mean                  =   8.2300000000000E-05
(PID.TID 0000.0001) %MON vort_a_sd                    =   7.1297555115594E-06
(PID.TID 0000.0001) %MON vort_p_mean                  =   8.3303658536585E-05
(PID.TID 0000.0001) %MON vort_p_sd                    =   1.7411470228623E-05
(PID.TID 0000.0001) %MON surfExpan_theta_mean         =   2.1200397658567E-26
(PID.TID 0000.0001) %MON surfExpan_salt_mean          =   3.1891139265450E-26
(PID.TID 0000.0001) // =======================================================
(PID.TID 0000.0001) // End MONITOR dynamic field statistics
(PID.TID 0000.0001) // =======================================================
 cg2d: Sum(rhs),rhsMax =  -2.14229826180089E-03  1.89562527183891E-09
 cg2d: Sum(rhs),rhsMax =  -2.14674125661649E-03  1.89170213360168E-09
 cg2d: Sum(rhs),rhsMax =  -2.15129337643336E-03  1.88769944330260E-09
 cg2d: Sum(rhs),rhsMax =  -2.15595507445927E-03  1.88361791813564E-09
 cg2d: Sum(rhs),rhsMax =  -2.16072680932606E-03  1.87945828820411E-09
 cg2d: Sum(rhs),rhsMax =  -2.16560905398153E-03  1.87522129636096E-09
 cg2d: Sum(rhs),rhsMax =  -2.17060229217316E-03  1.87090769802891E-09
 cg2d: Sum(rhs),rhsMax =  -2.17570701320822E-03  1.86651826103145E-09
 cg2d: Sum(rhs),rhsMax =  -2.18092371170397E-03  1.86205376541146E-09
 cg2d: Sum(rhs),rhsMax =  -2.18625290433784E-03  1.85751500325475E-09
 cg2d: Sum(rhs),rhsMax =  -2.19169510253210E-03  1.85290277850638E-09
 cg2d: Sum(rhs),rhsMax =  -2.19725079760712E-03  1.84821790739877E-09
 cg2d: Sum(rhs),rhsMax =  -2.20292055994634E-03  1.84346121571517E-09
 cg2d: Sum(rhs),rhsMax =  -2.20870493644665E-03  1.83863354255957E-09
 cg2d: Sum(rhs),rhsMax =  -2.21460447525132E-03  1.83373573761857E-09
 cg2d: Sum(rhs),rhsMax =  -2.22061974270917E-03  1.82876866109637E-09
(PID.TID 0000.0001)      cg2d_init_res =   1.09508865000359E-01
(PID.TID 0000.0001)      cg2d_iters(min,last) =      -1     531
(PID.TID 0000.0001)      cg2d_last_res =   9.57167234612380E-08
(PID.TID 0000.0001) // =======================================================
(PID.TID 0000.0001) // Begin MONITOR dynamic field statistics
(PID.TID 0000.0001) // =======================================================
(PID.TID 0000.0001) %MON time_tsnumber                =                  1632
(PID.TID 0000.0001) %MON time_secondsf                =   8.8128000000000E+06
(PID.TID 0000.0001) %MON dynstat_eta_max              =   9.8156708360762E-09
(PID.TID 0000.0001) %MON dynstat_eta_min              =  -9.5158618194160E-09
(PID.TID 0000.0001) %MON dynstat_eta_mean             =   3.9136349738052E-13
(PID.TID 0000.0001) %MON dynstat_eta_sd               =   3.1167075429130E-09
(PID.TID 0000.0001) %MON dynstat_eta_del2             =   5.1638658446778E-14
(PID.TID 0000.0001) %MON dynstat_uvel_max             =   6.9977722059349E-09
(PID.TID 0000.0001) %MON dynstat_uvel_min             =  -7.6778028768978E-09
(PID.TID 0000.0001) %MON dynstat_uvel_mean            =   2.1717557817961E-13
(PID.TID 0000.0001) %MON dynstat_uvel_sd              =   2.0698325880503E-09
(PID.TID 0000.0001) %MON dynstat_uvel_del2            =   1.0409706708502E-13
(PID.TID 0000.0001) %MON dynstat_vvel_max             =   1.4479320024947E-08
(PID.TID 0000.0001) %MON dynstat_vvel_min             =  -8.8447205466096E-09
(PID.TID 0000.0001) %MON dynstat_vvel_mean            =   1.0028660750392E-14
(PID.TID 0000.0001) %MON dynstat_vvel_sd              =   3.1663386097131E-09
(PID.TID 0000.0001) %MON dynstat_vvel_del2            =   2.2297028531273E-13
(PID.TID 0000.0001) %MON dynstat_wvel_max             =   1.0803296254802E-14
(PID.TID 0000.0001) %MON dynstat_wvel_min             =  -1.9935801208737E-14
(PID.TID 0000.0001) %MON dynstat_wvel_mean            =   1.2017218336265E-28
(PID.TID 0000.0001) %MON dynstat_wvel_sd              =   7.1191024602923E-15
(PID.TID 0000.0001) %MON dynstat_wvel_del2            =   5.2338856428360E-20
(PID.TID 0000.0001) %MON dynstat_theta_max            =   2.0000000000000E+01
(PID.TID 0000.0001) %MON dynstat_theta_min            =   2.0000000000000E+01
(PID.TID 0000.0001) %MON dynstat_theta_mean           =   2.0000000000000E+01
(PID.TID 0000.0001) %MON dynstat_theta_sd             =   0.0000000000000E+00
(PID.TID 0000.0001) %MON dynstat_theta_del2           =   0.0000000000000E+00
(PID.TID 0000.0001) %MON dynstat_salt_max             =   3.0000000000000E+01
(PID.TID 0000.0001) %MON dynstat_salt_min             =   3.0000000000000E+01
(PID.TID 0000.0001) %MON dynstat_salt_mean            =   3.0000000000000E+01
(PID.TID 0000.0001) %MON dynstat_salt_sd              =   0.0000000000000E+00
(PID.TID 0000.0001) %MON dynstat_salt_del2            =   0.0000000000000E+00
(PID.TID 0000.0001) %MON trAdv_CFL_u_max              =   8.3068051969183E-09
(PID.TID 0000.0001) %MON trAdv_CFL_v_max              =   1.5659298147994E-08
(PID.TID 0000.0001) %MON trAdv_CFL_w_max              =   1.1624979385116E-14
(PID.TID 0000.0001) %MON advcfl_uvel_max              =   8.2920271070496E-09
(PID.TID 0000.0001) %MON advcfl_vvel_max              =   1.5637665626942E-08
(PID.TID 0000.0001) %MON advcfl_wvel_max              =   4.3061330610872E-14
(PID.TID 0000.0001) %MON advcfl_W_hf_max              =   0.0000000000000E+00
(PID.TID 0000.0001) %MON pe_b_mean                    =   9.5293026060531E-21
(PID.TID 0000.0001) %MON ke_max                       =   1.0479250103809E-16
(PID.TID 0000.0001) %MON ke_mean                      =   7.1258684133929E-18
(PID.TID 0000.0001) %MON ke_vol                       =   7.5645000000000E+15
(PID.TID 0000.0001) %MON vort_r_min                   =  -3.6614161743012E-13
(PID.TID 0000.0001) %MON vort_r_max                   =   7.7619916971956E-13
(PID.TID 0000.0001) %MON vort_a_mean                  =   8.2299999999999E-05
(PID.TID 0000.0001) %MON vort_a_sd                    =   7.1297555115679E-06
(PID.TID 0000.0001) %MON vort_p_mean                  =   8.3303658536585E-05
(PID.TID 0000.0001) %MON vort_p_sd                    =   1.7411470228590E-05
(PID.TID 0000.0001) %MON surfExpan_theta_mean         =   2.4835009932612E-27
(PID.TID 0000.0001) %MON surfExpan_salt_mean          =   3.7610566738439E-27
(PID.TID 0000.0001) // =======================================================
(PID.TID 0000.0001) // End MONITOR dynamic field statistics
(PID.TID 0000.0001) // =======================================================
 cg2d: Sum(rhs),rhsMax =  -2.22675130135815E-03  1.82373318433854E-09
 cg2d: Sum(rhs),rhsMax =  -2.23299973077012E-03  1.81863018890544E-09
 cg2d: Sum(rhs),rhsMax =  -2.23936561354589E-03  1.81346056689948E-09
 cg2d: Sum(rhs),rhsMax =  -2.24584949723168E-03  1.80822522057831E-09
 cg2d: Sum(rhs),rhsMax =  -2.25245202259404E-03  1.80292506146625E-09
 cg2d: Sum(rhs),rhsMax =  -2.25917379961799E-03  1.79756101200815E-09
 cg2d: Sum(rhs),rhsMax =  -2.26601496304579E-03  1.79213437674869E-09
 cg2d: Sum(rhs),rhsMax =  -2.27290394711831E-03  1.78670283297378E-09
 cg2d: Sum(rhs),rhsMax =  -2.27991315215248E-03  1.78121016299487E-09
 cg2d: Sum(rhs),rhsMax =  -2.28704324131553E-03  1.77565732063515E-09
 cg2d: Sum(rhs),rhsMax =  -2.29429482734205E-03  1.77004527027661E-09
 cg2d: Sum(rhs),rhsMax =  -2.30166847653477E-03  1.76437498467811E-09
 cg2d: Sum(rhs),rhsMax =  -2.30916487060408E-03  1.75864744338731E-09
 cg2d: Sum(rhs),rhsMax =  -2.31678463962431E-03  1.75286363577540E-09
 cg2d: Sum(rhs),rhsMax =  -2.32452836843745E-03  1.74702455741228E-09
 cg2d: Sum(rhs),rhsMax =  -2.33239674735875E-03  1.74113121233609E-09
(PID.TID 0000.0001)      cg2d_init_res =   1.14836512698689E-01
(PID.TID 0000.0001)      cg2d_iters(min,last) =      -1     535
(PID.TID 0000.0001)      cg2d_last_res =   9.17338706447963E-08
(PID.TID 0000.0001) // =======================================================
(PID.TID 0000.0001) // Begin MONITOR dynamic field statistics
(PID.TID 0000.0001) // =======================================================
(PID.TID 0000.0001) %MON time_tsnumber                =                  1648
(PID.TID 0000.0001) %MON time_secondsf                =   8.8992000000000E+06
(PID.TID 0000.0001) %MON dynstat_eta_max              =   9.5758658091473E-09
(PID.TID 0000.0001) %MON dynstat_eta_min              =  -9.8486704870096E-09
(PID.TID 0000.0001) %MON dynstat_eta_mean             =   3.9136438457077E-13
(PID.TID 0000.0001) %MON dynstat_eta_sd               =   3.0625726197839E-09
(PID.TID 0000.0001) %MON dynstat_eta_del2             =   5.1119864750149E-14
(PID.TID 0000.0001) %MON dynstat_uvel_max             =   6.8069427110797E-09
(PID.TID 0000.0001) %MON dynstat_uvel_min             =  -7.4556724752432E-09
(PID.TID 0000.0001) %MON dynstat_uvel_mean            =   2.5557546211722E-13
(PID.TID 0000.0001) %MON dynstat_uvel_sd              =   2.0395021698036E-09
(PID.TID 0000.0001) %MON dynstat_uvel_del2            =   1.0485344950964E-13
(PID.TID 0000.0001) %MON dynstat_vvel_max             =   1.4083183851831E-08
(PID.TID 0000.0001) %MON dynstat_vvel_min             =  -8.3378112916623E-09
(PID.TID 0000.0001) %MON dynstat_vvel_mean            =   1.0383230485983E-14
(PID.TID 0000.0001) %MON dynstat_vvel_sd              =   3.1286136854680E-09
(PID.TID 0000.0001) %MON dynstat_vvel_del2            =   2.1873545393861E-13
(PID.TID 0000.0001) %MON dynstat_wvel_max             =   1.1322818549431E-14
(PID.TID 0000.0001) %MON dynstat_wvel_min             =  -1.8713275661275E-14
(PID.TID 0000.0001) %MON dynstat_wvel_mean            =   3.2245873192543E-28
(PID.TID 0000.0001) %MON dynstat_wvel_sd              =   7.0945052850356E-15
(PID.TID 0000.0001) %MON dynstat_wvel_del2            =   5.1838439267398E-20
(PID.TID 0000.0001) %MON dynstat_theta_max            =   2.0000000000000E+01
(PID.TID 0000.0001) %MON dynstat_theta_min            =   2.0000000000000E+01
(PID.TID 0000.0001) %MON dynstat_theta_mean           =   2.0000000000000E+01
(PID.TID 0000.0001) %MON dynstat_theta_sd             =   0.0000000000000E+00
(PID.TID 0000.0001) %MON dynstat_theta_del2           =   0.0000000000000E+00
(PID.TID 0000.0001) %MON dynstat_salt_max             =   3.0000000000000E+01
(PID.TID 0000.0001) %MON dynstat_salt_min             =   3.0000000000000E+01
(PID.TID 0000.0001) %MON dynstat_salt_mean            =   3.0000000000000E+01
(PID.TID 0000.0001) %MON dynstat_salt_sd              =   0.0000000000000E+00
(PID.TID 0000.0001) %MON dynstat_salt_del2            =   0.0000000000000E+00
(PID.TID 0000.0001) %MON trAdv_CFL_u_max              =   8.0669562023494E-09
(PID.TID 0000.0001) %MON trAdv_CFL_v_max              =   1.5240755897165E-08
(PID.TID 0000.0001) %MON trAdv_CFL_w_max              =   1.2200200593981E-14
(PID.TID 0000.0001) %MON advcfl_uvel_max              =   8.0521262732626E-09
(PID.TID 0000.0001) %MON advcfl_vvel_max              =   1.5209838559978E-08
(PID.TID 0000.0001) %MON advcfl_wvel_max              =   4.0420675428354E-14
(PID.TID 0000.0001) %MON advcfl_W_hf_max              =   0.0000000000000E+00
(PID.TID 0000.0001) %MON pe_b_mean                    =   9.2011435317284E-21
(PID.TID 0000.0001) %MON ke_max                       =   9.9148465490942E-17
(PID.TID 0000.0001) %MON ke_mean                      =   6.9455472072044E-18
(PID.TID 0000.0001) %MON ke_vol                       =   7.5645000000000E+15
(PID.TID 0000.0001) %MON vort_r_min                   =  -3.7394758366388E-13
(PID.TID 0000.0001) %MON vort_r_max                   =   7.4487895191122E-13
(PID.TID 0000.0001) %MON vort_a_mean                  =   8.2300000000000E-05
(PID.TID 0000.0001) %MON vort_a_sd                    =   7.1297555115638E-06
(PID.TID 0000.0001) %MON vort_p_mean                  =   8.3303658536585E-05
(PID.TID 0000.0001) %MON vort_p_sd                    =   1.7411470228556E-05
(PID.TID 0000.0001) %MON surfExpan_theta_mean         =   6.5343981320605E-27
(PID.TID 0000.0001) %MON surfExpan_salt_mean          =   9.7767029731145E-27
(PID.TID 0000.0001) // =======================================================
(PID.TID 0000.0001) // End MONITOR dynamic field statistics
(PID.TID 0000.0001) // =======================================================
 cg2d: Sum(rhs),rhsMax =  -2.34039042237586E-03  1.73518461152913E-09
 cg2d: Sum(rhs),rhsMax =  -2.34851003718475E-03  1.72918577369844E-09
 cg2d: Sum(rhs),rhsMax =  -2.35675625312096E-03  1.72313572318120E-09
 cg2d: Sum(rhs),rhsMax =  -2.36512971947210E-03  1.71703549253417E-09
 cg2d: Sum(rhs),rhsMax =  -2.37363109619942E-03  1.71088611926205E-09
 cg2d: Sum(rhs),rhsMax =  -2.38226099139181E-03  1.70468864855599E-09
 cg2d: Sum(rhs),rhsMax =  -2.39102011569986E-03  1.69844413022563E-09
 cg2d: Sum(rhs),rhsMax =  -2.39990913525336E-03  1.69215362084419E-09
 cg2d: Sum(rhs),rhsMax =  -2.40892871346906E-03  1.68581818196104E-09
 cg2d: Sum(rhs),rhsMax =  -2.41807951477814E-03  1.67943888062643E-09
 cg2d: Sum(rhs),rhsMax =  -2.42736221401142E-03  1.67301678895891E-09
 cg2d: Sum(rhs),rhsMax =  -2.43677746565197E-03  1.66655298392601E-09
 cg2d: Sum(rhs),rhsMax =  -2.44632594269541E-03  1.66004854709809E-09
 cg2d: Sum(rhs),rhsMax =  -2.45600830631980E-03  1.65350456442080E-09
 cg2d: Sum(rhs),rhsMax =  -2.46582522222437E-03  1.64692212598252E-09
 cg2d: Sum(rhs),rhsMax =  -2.47577734954609E-03  1.64030232578252E-09
(PID.TID 0000.0001)      cg2d_init_res =   1.21989832028294E-01
(PID.TID 0000.0001)      cg2d_iters(min,last) =      -1     536
(PID.TID 0000.0001)      cg2d_last_res =   9.84555952600697E-08
(PID.TID 0000.0001) // =======================================================
(PID.TID 0000.0001) // Begin MONITOR dynamic field statistics
(PID.TID 0000.0001) // =======================================================
(PID.TID 0000.0001) %MON time_tsnumber                =                  1664
(PID.TID 0000.0001) %MON time_secondsf                =   8.9856000000000E+06
(PID.TID 0000.0001) %MON dynstat_eta_max              =   9.2081716871670E-09
(PID.TID 0000.0001) %MON dynstat_eta_min              =  -9.9869599620962E-09
(PID.TID 0000.0001) %MON dynstat_eta_mean             =   3.9136584758549E-13
(PID.TID 0000.0001) %MON dynstat_eta_sd               =   3.0167167728644E-09
(PID.TID 0000.0001) %MON dynstat_eta_del2             =   5.0556356891396E-14
(PID.TID 0000.0001) %MON dynstat_uvel_max             =   6.6076242226267E-09
(PID.TID 0000.0001) %MON dynstat_uvel_min             =  -7.2309651670156E-09
(PID.TID 0000.0001) %MON dynstat_uvel_mean            =   2.7874682318384E-13
(PID.TID 0000.0001) %MON dynstat_uvel_sd              =   2.0099136338042E-09
(PID.TID 0000.0001) %MON dynstat_uvel_del2            =   1.0499134383060E-13
(PID.TID 0000.0001) %MON dynstat_vvel_max             =   1.3556731125683E-08
(PID.TID 0000.0001) %MON dynstat_vvel_min             =  -7.7346314467801E-09
(PID.TID 0000.0001) %MON dynstat_vvel_mean            =   1.0222840291477E-14
(PID.TID 0000.0001) %MON dynstat_vvel_sd              =   3.0910753078425E-09
(PID.TID 0000.0001) %MON dynstat_vvel_del2            =   2.1466134098821E-13
(PID.TID 0000.0001) %MON dynstat_wvel_max             =   1.1651419941083E-14
(PID.TID 0000.0001) %MON dynstat_wvel_min             =  -1.7216034029488E-14
(PID.TID 0000.0001) %MON dynstat_wvel_mean            =  -4.2497597393316E-28
(PID.TID 0000.0001) %MON dynstat_wvel_sd              =   7.0498202871593E-15
(PID.TID 0000.0001) %MON dynstat_wvel_del2            =   5.1694653642563E-20
(PID.TID 0000.0001) %MON dynstat_theta_max            =   2.0000000000000E+01
(PID.TID 0000.0001) %MON dynstat_theta_min            =   2.0000000000000E+01
(PID.TID 0000.0001) %MON dynstat_theta_mean           =   2.0000000000000E+01
(PID.TID 0000.0001) %MON dynstat_theta_sd             =   0.0000000000000E+00
(PID.TID 0000.0001) %MON dynstat_theta_del2           =   0.0000000000000E+00
(PID.TID 0000.0001) %MON dynstat_salt_max             =   3.0000000000000E+01
(PID.TID 0000.0001) %MON dynstat_salt_min             =   3.0000000000000E+01
(PID.TID 0000.0001) %MON dynstat_salt_mean            =   3.0000000000000E+01
(PID.TID 0000.0001) %MON dynstat_salt_sd              =   0.0000000000000E+00
(PID.TID 0000.0001) %MON dynstat_salt_del2            =   0.0000000000000E+00
(PID.TID 0000.0001) %MON trAdv_CFL_u_max              =   7.8249015076769E-09
(PID.TID 0000.0001) %MON trAdv_CFL_v_max              =   1.4680644487105E-08
(PID.TID 0000.0001) %MON trAdv_CFL_w_max              =   1.2563050516690E-14
(PID.TID 0000.0001) %MON advcfl_uvel_max              =   7.8094423803769E-09
(PID.TID 0000.0001) %MON advcfl_vvel_max              =   1.4641269615738E-08
(PID.TID 0000.0001) %MON advcfl_wvel_max              =   3.7186633503694E-14
(PID.TID 0000.0001) %MON advcfl_W_hf_max              =   0.0000000000000E+00
(PID.TID 0000.0001) %MON pe_b_mean                    =   8.9276692162723E-21
(PID.TID 0000.0001) %MON ke_max                       =   9.1823672859176E-17
(PID.TID 0000.0001) %MON ke_mean                      =   6.7696186295081E-18
(PID.TID 0000.0001) %MON ke_vol                       =   7.5645000000000E+15
(PID.TID 0000.0001) %MON vort_r_min                   =  -3.8648733695228E-13
(PID.TID 0000.0001) %MON vort_r_max                   =   7.0724113324663E-13
(PID.TID 0000.0001) %MON vort_a_mean                  =   8.2300000000000E-05
(PID.TID 0000.0001) %MON vort_a_sd                    =   7.1297555115571E-06
(PID.TID 0000.0001) %MON vort_p_mean                  =   8.3303658536586E-05
(PID.TID 0000.0001) %MON vort_p_sd                    =   1.7411470228527E-05
(PID.TID 0000.0001) %MON surfExpan_theta_mean         =  -8.4590905675373E-27
(PID.TID 0000.0001) %MON surfExpan_salt_mean          =  -1.2673408965810E-26
(PID.TID 0000.0001) // =======================================================
(PID.TID 0000.0001) // End MONITOR dynamic field statistics
(PID.TID 0000.0001) // =======================================================
 cg2d: Sum(rhs),rhsMax =  -2.48586534664440E-03  1.63364626149875E-09
 cg2d: Sum(rhs),rhsMax =  -2.49608986589522E-03  1.62695503425252E-09
 cg2d: Sum(rhs),rhsMax =  -2.50645148900311E-03  1.62022974757910E-09
 cg2d: Sum(rhs),rhsMax =  -2.51695093127019E-03  1.61347151062622E-09
 cg2d: Sum(rhs),rhsMax =  -2.52758884141213E-03  1.60668143200931E-09
 cg2d: Sum(rhs),rhsMax =  -2.53836585235585E-03  1.59986062499167E-09
 cg2d: Sum(rhs),rhsMax =  -2.54928260338503E-03  1.59301020371549E-09
 cg2d: Sum(rhs),rhsMax =  -2.56033971218142E-03  1.58613128557632E-09
 cg2d: Sum(rhs),rhsMax =  -2.57153769105371E-03  1.57922498857253E-09
 cg2d: Sum(rhs),rhsMax =  -2.58287712228716E-03  1.57229243333629E-09
 cg2d: Sum(rhs),rhsMax =  -2.59435859977519E-03  1.56533474171753E-09
 cg2d: Sum(rhs),rhsMax =  -2.60598282789354E-03  1.55835303535754E-09
 cg2d: Sum(rhs),rhsMax =  -2.61775038199343E-03  1.55134843841678E-09
 cg2d: Sum(rhs),rhsMax =  -2.62966183433658E-03  1.54432207465562E-09
 cg2d: Sum(rhs),rhsMax =  -2.64171758828058E-03  1.53727506898150E-09
 cg2d: Sum(rhs),rhsMax =  -2.65391833544430E-03  1.53020854478021E-09
(PID.TID 0000.0001)      cg2d_init_res =   1.30947584624323E-01
(PID.TID 0000.0001)      cg2d_iters(min,last) =      -1     543
(PID.TID 0000.0001)      cg2d_last_res =   9.31294697663133E-08
(PID.TID 0000.0001) // =======================================================
(PID.TID 0000.0001) // Begin MONITOR dynamic field statistics
(PID.TID 0000.0001) // =======================================================
(PID.TID 0000.0001) %MON time_tsnumber                =                  1680
(PID.TID 0000.0001) %MON time_secondsf                =   9.0720000000000E+06
(PID.TID 0000.0001) %MON dynstat_eta_max              =   8.7217101723789E-09
(PID.TID 0000.0001) %MON dynstat_eta_min              =  -9.9358706369874E-09
(PID.TID 0000.0001) %MON dynstat_eta_mean             =   3.9136829834616E-13
(PID.TID 0000.0001) %MON dynstat_eta_sd               =   2.9803787713694E-09
(PID.TID 0000.0001) %MON dynstat_eta_del2             =   4.9951690818417E-14
(PID.TID 0000.0001) %MON dynstat_uvel_max             =   6.3951239101164E-09
(PID.TID 0000.0001) %MON dynstat_uvel_min             =  -7.0117830306016E-09
(PID.TID 0000.0001) %MON dynstat_uvel_mean            =   2.8571548865521E-13
(PID.TID 0000.0001) %MON dynstat_uvel_sd              =   1.9780338134261E-09
(PID.TID 0000.0001) %MON dynstat_uvel_del2            =   1.0469877803312E-13
(PID.TID 0000.0001) %MON dynstat_vvel_max             =   1.2917655886442E-08
(PID.TID 0000.0001) %MON dynstat_vvel_min             =  -7.4513841813439E-09
(PID.TID 0000.0001) %MON dynstat_vvel_mean            =   9.7442268879994E-15
(PID.TID 0000.0001) %MON dynstat_vvel_sd              =   3.0557837686182E-09
(PID.TID 0000.0001) %MON dynstat_vvel_del2            =   2.1078694577013E-13
(PID.TID 0000.0001) %MON dynstat_wvel_max             =   1.3018111990060E-14
(PID.TID 0000.0001) %MON dynstat_wvel_min             =  -1.5453193213388E-14
(PID.TID 0000.0001) %MON dynstat_wvel_mean            =  -1.1040237552550E-27
(PID.TID 0000.0001) %MON dynstat_wvel_sd              =   6.9832490491296E-15
(PID.TID 0000.0001) %MON dynstat_wvel_del2            =   5.1578902936304E-20
(PID.TID 0000.0001) %MON dynstat_theta_max            =   2.0000000000000E+01
(PID.TID 0000.0001) %MON dynstat_theta_min            =   2.0000000000000E+01
(PID.TID 0000.0001) %MON dynstat_theta_mean           =   2.0000000000000E+01
(PID.TID 0000.0001) %MON dynstat_theta_sd             =   0.0000000000000E+00
(PID.TID 0000.0001) %MON dynstat_theta_del2           =   0.0000000000000E+00
(PID.TID 0000.0001) %MON dynstat_salt_max             =   3.0000000000000E+01
(PID.TID 0000.0001) %MON dynstat_salt_min             =   3.0000000000000E+01
(PID.TID 0000.0001) %MON dynstat_salt_mean            =   3.0000000000000E+01
(PID.TID 0000.0001) %MON dynstat_salt_sd              =   0.0000000000000E+00
(PID.TID 0000.0001) %MON dynstat_salt_del2            =   0.0000000000000E+00
(PID.TID 0000.0001) %MON trAdv_CFL_u_max              =   7.5877613257605E-09
(PID.TID 0000.0001) %MON trAdv_CFL_v_max              =   1.3997246604750E-08
(PID.TID 0000.0001) %MON trAdv_CFL_w_max              =   1.3957142343668E-14
(PID.TID 0000.0001) %MON advcfl_uvel_max              =   7.5727256730497E-09
(PID.TID 0000.0001) %MON advcfl_vvel_max              =   1.3951068357357E-08
(PID.TID 0000.0001) %MON advcfl_wvel_max              =   3.3378897340919E-14
(PID.TID 0000.0001) %MON advcfl_W_hf_max              =   0.0000000000000E+00
(PID.TID 0000.0001) %MON pe_b_mean                    =   8.7138872762926E-21
(PID.TID 0000.0001) %MON ke_max                       =   8.3321712882153E-17
(PID.TID 0000.0001) %MON ke_mean                      =   6.5982843717219E-18
(PID.TID 0000.0001) %MON ke_vol                       =   7.5645000000000E+15
(PID.TID 0000.0001) %MON vort_r_min                   =  -4.0217021830878E-13
(PID.TID 0000.0001) %MON vort_r_max                   =   6.6494029652451E-13
(PID.TID 0000.0001) %MON vort_a_mean                  =   8.2300000000000E-05
(PID.TID 0000.0001) %MON vort_a_sd                    =   7.1297555115611E-06
(PID.TID 0000.0001) %MON vort_p_mean                  =   8.3303658536586E-05
(PID.TID 0000.0001) %MON vort_p_sd                    =   1.7411470228510E-05
(PID.TID 0000.0001) %MON surfExpan_theta_mean         =  -2.2076033434303E-26
(PID.TID 0000.0001) %MON surfExpan_salt_mean          =  -3.3105975652700E-26
(PID.TID 0000.0001) // =======================================================
(PID.TID 0000.0001) // End MONITOR dynamic field statistics
(PID.TID 0000.0001) // =======================================================
 cg2d: Sum(rhs),rhsMax =  -2.66626423833218E-03  1.52312362792679E-09
 cg2d: Sum(rhs),rhsMax =  -2.67875614369022E-03  1.51602144089058E-09
 cg2d: Sum(rhs),rhsMax =  -2.69139455723798E-03  1.50890310802515E-09
 cg2d: Sum(rhs),rhsMax =  -2.70417996306975E-03  1.50176975244288E-09
 cg2d: Sum(rhs),rhsMax =  -2.71711285586356E-03  1.49462249535869E-09
 cg2d: Sum(rhs),rhsMax =  -2.73019371229485E-03  1.48746245772776E-09
 cg2d: Sum(rhs),rhsMax =  -2.74342300820978E-03  1.48029075803744E-09
 cg2d: Sum(rhs),rhsMax =  -2.75680124038186E-03  1.47310851398107E-09
 cg2d: Sum(rhs),rhsMax =  -2.77032853036875E-03  1.46591684019085E-09
 cg2d: Sum(rhs),rhsMax =  -2.78400586566132E-03  1.45871685061184E-09
 cg2d: Sum(rhs),rhsMax =  -2.79783422574028E-03  1.45150965541018E-09
 cg2d: Sum(rhs),rhsMax =  -2.81181583368733E-03  1.44429636241825E-09
 cg2d: Sum(rhs),rhsMax =  -2.82918329174663E-03  1.43707807669437E-09
 cg2d: Sum(rhs),rhsMax =  -2.84345297061803E-03  1.42985590007580E-09
 cg2d: Sum(rhs),rhsMax =  -2.85788603934601E-03  1.42263093432328E-09
 cg2d: Sum(rhs),rhsMax =  -2.87247286902878E-03  1.41540427049545E-09
(PID.TID 0000.0001)      cg2d_init_res =   1.41636912772211E-01
(PID.TID 0000.0001)      cg2d_iters(min,last) =      -1     544
(PID.TID 0000.0001)      cg2d_last_res =   9.32986023406028E-08
(PID.TID 0000.0001) // =======================================================
(PID.TID 0000.0001) // Begin MONITOR dynamic field statistics
(PID.TID 0000.0001) // =======================================================
(PID.TID 0000.0001) %MON time_tsnumber                =                  1696
(PID.TID 0000.0001) %MON time_secondsf                =   9.1584000000000E+06
(PID.TID 0000.0001) %MON dynstat_eta_max              =   8.1301693627702E-09
(PID.TID 0000.0001) %MON dynstat_eta_min              =  -9.6884128114448E-09
(PID.TID 0000.0001) %MON dynstat_eta_mean             =   3.9181694995652E-13
(PID.TID 0000.0001) %MON dynstat_eta_sd               =   2.9531256819625E-09
(PID.TID 0000.0001) %MON dynstat_eta_del2             =   4.9313228594372E-14
(PID.TID 0000.0001) %MON dynstat_uvel_max             =   6.1736568657099E-09
(PID.TID 0000.0001) %MON dynstat_uvel_min             =  -6.7843778106855E-09
(PID.TID 0000.0001) %MON dynstat_uvel_mean            =   2.7642288793651E-13
(PID.TID 0000.0001) %MON dynstat_uvel_sd              =   1.9418075025191E-09
(PID.TID 0000.0001) %MON dynstat_uvel_del2            =   1.0425203974900E-13
(PID.TID 0000.0001) %MON dynstat_vvel_max             =   1.2192403903204E-08
(PID.TID 0000.0001) %MON dynstat_vvel_min             =  -7.6432995219665E-09
(PID.TID 0000.0001) %MON dynstat_vvel_mean            =   9.1561347314768E-15
(PID.TID 0000.0001) %MON dynstat_vvel_sd              =   3.0241058888954E-09
(PID.TID 0000.0001) %MON dynstat_vvel_del2            =   2.0708432199487E-13
(PID.TID 0000.0001) %MON dynstat_wvel_max             =   1.4442933827796E-14
(PID.TID 0000.0001) %MON dynstat_wvel_min             =  -1.5102734713945E-14
(PID.TID 0000.0001) %MON dynstat_wvel_mean            =   1.0343019341153E-27
(PID.TID 0000.0001) %MON dynstat_wvel_sd              =   6.8972559583490E-15
(PID.TID 0000.0001) %MON dynstat_wvel_del2            =   5.1529945107421E-20
(PID.TID 0000.0001) %MON dynstat_theta_max            =   2.0000000000000E+01
(PID.TID 0000.0001) %MON dynstat_theta_min            =   2.0000000000000E+01
(PID.TID 0000.0001) %MON dynstat_theta_mean           =   2.0000000000000E+01
(PID.TID 0000.0001) %MON dynstat_theta_sd             =   0.0000000000000E+00
(PID.TID 0000.0001) %MON dynstat_theta_del2           =   0.0000000000000E+00
(PID.TID 0000.0001) %MON dynstat_salt_max             =   3.0000000000000E+01
(PID.TID 0000.0001) %MON dynstat_salt_min             =   3.0000000000000E+01
(PID.TID 0000.0001) %MON dynstat_salt_mean            =   3.0000000000000E+01
(PID.TID 0000.0001) %MON dynstat_salt_sd              =   0.0000000000000E+00
(PID.TID 0000.0001) %MON dynstat_salt_del2            =   0.0000000000000E+00
(PID.TID 0000.0001) %MON trAdv_CFL_u_max              =   7.3427501812862E-09
(PID.TID 0000.0001) %MON trAdv_CFL_v_max              =   1.3218892850277E-08
(PID.TID 0000.0001) %MON trAdv_CFL_w_max              =   1.5507135183546E-14
(PID.TID 0000.0001) %MON advcfl_uvel_max              =   7.3271280355403E-09
(PID.TID 0000.0001) %MON advcfl_vvel_max              =   1.3167796215461E-08
(PID.TID 0000.0001) %MON advcfl_wvel_max              =   3.2621906982122E-14
(PID.TID 0000.0001) %MON advcfl_W_hf_max              =   0.0000000000000E+00
(PID.TID 0000.0001) %MON pe_b_mean                    =   8.5552533694940E-21
(PID.TID 0000.0001) %MON ke_max                       =   7.4249420882357E-17
(PID.TID 0000.0001) %MON ke_mean                      =   6.4316647474457E-18
(PID.TID 0000.0001) %MON ke_vol                       =   7.5645000000000E+15
(PID.TID 0000.0001) %MON vort_r_min                   =  -4.1952251970456E-13
(PID.TID 0000.0001) %MON vort_r_max                   =   6.1952739769316E-13
(PID.TID 0000.0001) %MON vort_a_mean                  =   8.2300000000001E-05
(PID.TID 0000.0001) %MON vort_a_sd                    =   7.1297555115496E-06
(PID.TID 0000.0001) %MON vort_p_mean                  =   8.3303658536586E-05
(PID.TID 0000.0001) %MON vort_p_sd                    =   1.7411470228496E-05
(PID.TID 0000.0001) %MON surfExpan_theta_mean         =   2.0665704821355E-26
(PID.TID 0000.0001) %MON surfExpan_salt_mean          =   3.0996136338078E-26
(PID.TID 0000.0001) // =======================================================
(PID.TID 0000.0001) // End MONITOR dynamic field statistics
(PID.TID 0000.0001) // =======================================================
 cg2d: Sum(rhs),rhsMax =  -2.88721197972551E-03  1.40817700187318E-09
 cg2d: Sum(rhs),rhsMax =  -2.90210291808570E-03  1.40095021556156E-09
 cg2d: Sum(rhs),rhsMax =  -2.91714548983513E-03  1.39372499476355E-09
 cg2d: Sum(rhs),rhsMax =  -2.93233958439464E-03  1.38650241822419E-09
 cg2d: Sum(rhs),rhsMax =  -2.94768511592325E-03  1.37928356003787E-09
 cg2d: Sum(rhs),rhsMax =  -2.96318197609836E-03  1.37206948942555E-09
 cg2d: Sum(rhs),rhsMax =  -2.97883003842594E-03  1.36486127052194E-09
 cg2d: Sum(rhs),rhsMax =  -2.99462914733045E-03  1.35765996216013E-09
 cg2d: Sum(rhs),rhsMax =  -3.01057910512858E-03  1.35046661765935E-09
 cg2d: Sum(rhs),rhsMax =  -3.02667967583672E-03  1.34328228461378E-09
 cg2d: Sum(rhs),rhsMax =  -3.04293057914874E-03  1.33610800468263E-09
 cg2d: Sum(rhs),rhsMax =  -3.05933148403360E-03  1.32894481338296E-09
 cg2d: Sum(rhs),rhsMax =  -3.07588201199572E-03  1.32179373988259E-09
 cg2d: Sum(rhs),rhsMax =  -3.09258173601690E-03  1.31465580679589E-09
 cg2d: Sum(rhs),rhsMax =  -3.10943017379569E-03  1.30753202998073E-09
 cg2d: Sum(rhs),rhsMax =  -3.12642678868032E-03  1.30042341833765E-09
(PID.TID 0000.0001)      cg2d_init_res =   1.53932830669331E-01
(PID.TID 0000.0001)      cg2d_iters(min,last) =      -1     545
(PID.TID 0000.0001)      cg2d_last_res =   9.64127268784886E-08
(PID.TID 0000.0001) // =======================================================
(PID.TID 0000.0001) // Begin MONITOR dynamic field statistics
(PID.TID 0000.0001) // =======================================================
(PID.TID 0000.0001) %MON time_tsnumber                =                  1712
(PID.TID 0000.0001) %MON time_secondsf                =   9.2448000000000E+06
(PID.TID 0000.0001) %MON dynstat_eta_max              =   7.4548714980104E-09
(PID.TID 0000.0001) %MON dynstat_eta_min              =  -9.2611500345312E-09
(PID.TID 0000.0001) %MON dynstat_eta_mean             =   3.9181428400655E-13
(PID.TID 0000.0001) %MON dynstat_eta_sd               =   2.9329765432120E-09
(PID.TID 0000.0001) %MON dynstat_eta_del2             =   4.8650274793208E-14
(PID.TID 0000.0001) %MON dynstat_uvel_max             =   5.9485231218132E-09
(PID.TID 0000.0001) %MON dynstat_uvel_min             =  -6.6914060187687E-09
(PID.TID 0000.0001) %MON dynstat_uvel_mean            =   2.5171650018873E-13
(PID.TID 0000.0001) %MON dynstat_uvel_sd              =   1.9005152074293E-09
(PID.TID 0000.0001) %MON dynstat_uvel_del2            =   1.0394506585209E-13
(PID.TID 0000.0001) %MON dynstat_vvel_max             =   1.1410031023608E-08
(PID.TID 0000.0001) %MON dynstat_vvel_min             =  -7.7802400695727E-09
(PID.TID 0000.0001) %MON dynstat_vvel_mean            =   8.6648907095727E-15
(PID.TID 0000.0001) %MON dynstat_vvel_sd              =   2.9964702775956E-09
(PID.TID 0000.0001) %MON dynstat_vvel_del2            =   2.0347646486218E-13
(PID.TID 0000.0001) %MON dynstat_wvel_max             =   1.5642475762467E-14
(PID.TID 0000.0001) %MON dynstat_wvel_min             =  -1.4951047765388E-14
(PID.TID 0000.0001) %MON dynstat_wvel_mean            =   7.2773979608530E-28
(PID.TID 0000.0001) %MON dynstat_wvel_sd              =   6.7981388868664E-15
(PID.TID 0000.0001) %MON dynstat_wvel_del2            =   5.1554321884649E-20
(PID.TID 0000.0001) %MON dynstat_theta_max            =   2.0000000000000E+01
(PID.TID 0000.0001) %MON dynstat_theta_min            =   2.0000000000000E+01
(PID.TID 0000.0001) %MON dynstat_theta_mean           =   2.0000000000000E+01
(PID.TID 0000.0001) %MON dynstat_theta_sd             =   0.0000000000000E+00
(PID.TID 0000.0001) %MON dynstat_theta_del2           =   0.0000000000000E+00
(PID.TID 0000.0001) %MON dynstat_salt_max             =   3.0000000000000E+01
(PID.TID 0000.0001) %MON dynstat_salt_min             =   3.0000000000000E+01
(PID.TID 0000.0001) %MON dynstat_salt_mean            =   3.0000000000000E+01
(PID.TID 0000.0001) %MON dynstat_salt_sd              =   0.0000000000000E+00
(PID.TID 0000.0001) %MON dynstat_salt_del2            =   0.0000000000000E+00
(PID.TID 0000.0001) %MON trAdv_CFL_u_max              =   7.2146318430972E-09
(PID.TID 0000.0001) %MON trAdv_CFL_v_max              =   1.2376836705565E-08
(PID.TID 0000.0001) %MON trAdv_CFL_w_max              =   1.6821323638805E-14
(PID.TID 0000.0001) %MON advcfl_uvel_max              =   7.2267185002702E-09
(PID.TID 0000.0001) %MON advcfl_vvel_max              =   1.2322833505496E-08
(PID.TID 0000.0001) %MON advcfl_wvel_max              =   3.3787747646929E-14
(PID.TID 0000.0001) %MON advcfl_W_hf_max              =   0.0000000000000E+00
(PID.TID 0000.0001) %MON pe_b_mean                    =   8.4389068769759E-21
(PID.TID 0000.0001) %MON ke_max                       =   6.5062119496925E-17
(PID.TID 0000.0001) %MON ke_mean                      =   6.2698050796686E-18
(PID.TID 0000.0001) %MON ke_vol                       =   7.5645000000000E+15
(PID.TID 0000.0001) %MON vort_r_min                   =  -4.3666322919980E-13
(PID.TID 0000.0001) %MON vort_r_max                   =   5.7283078688909E-13
(PID.TID 0000.0001) %MON vort_a_mean                  =   8.2300000000000E-05
(PID.TID 0000.0001) %MON vort_a_sd                    =   7.1297555115614E-06
(PID.TID 0000.0001) %MON vort_p_mean                  =   8.3303658536585E-05
(PID.TID 0000.0001) %MON vort_p_sd                    =   1.7411470228502E-05
(PID.TID 0000.0001) %MON surfExpan_theta_mean         =   1.4563702690098E-26
(PID.TID 0000.0001) %MON surfExpan_salt_mean          =   2.1860634198736E-26
(PID.TID 0000.0001) // =======================================================
(PID.TID 0000.0001) // End MONITOR dynamic field statistics
(PID.TID 0000.0001) // =======================================================
 cg2d: Sum(rhs),rhsMax =  -3.14357108227480E-03  1.29333097350575E-09
 cg2d: Sum(rhs),rhsMax =  -3.16086230919327E-03  1.28625569033923E-09
 cg2d: Sum(rhs),rhsMax =  -3.17829974633278E-03  1.27919855500580E-09
 cg2d: Sum(rhs),rhsMax =  -3.19588262549402E-03  1.27216054713348E-09
 cg2d: Sum(rhs),rhsMax =  -3.21361010557766E-03  1.26514263748636E-09
 cg2d: Sum(rhs),rhsMax =  -3.23148128090859E-03  1.25814578942506E-09
 cg2d: Sum(rhs),rhsMax =  -3.24949517736771E-03  1.25117095739283E-09
 cg2d: Sum(rhs),rhsMax =  -3.26765075445480E-03  1.24421908787570E-09
 cg2d: Sum(rhs),rhsMax =  -3.28594689797242E-03  1.23729111818199E-09
 cg2d: Sum(rhs),rhsMax =  -3.30438242111803E-03  1.23038797722278E-09
 cg2d: Sum(rhs),rhsMax =  -3.32295605788660E-03  1.22351058443761E-09
 cg2d: Sum(rhs),rhsMax =  -3.34166647519744E-03  1.21665985044635E-09
 cg2d: Sum(rhs),rhsMax =  -3.36051225043914E-03  1.20983667611561E-09
 cg2d: Sum(rhs),rhsMax =  -3.37949189118062E-03  1.20304195307551E-09
 cg2d: Sum(rhs),rhsMax =  -3.39860382515701E-03  1.19627656293325E-09
 cg2d: Sum(rhs),rhsMax =  -3.41784637351044E-03  1.18954137765020E-09
(PID.TID 0000.0001)      cg2d_init_res =   1.67616094766325E-01
(PID.TID 0000.0001)      cg2d_iters(min,last) =      -1     545
(PID.TID 0000.0001)      cg2d_last_res =   9.82296992074068E-08
(PID.TID 0000.0001) // =======================================================
(PID.TID 0000.0001) // Begin MONITOR dynamic field statistics
(PID.TID 0000.0001) // =======================================================
(PID.TID 0000.0001) %MON time_tsnumber                =                  1728
(PID.TID 0000.0001) %MON time_secondsf                =   9.3312000000000E+06
(PID.TID 0000.0001) %MON dynstat_eta_max              =   6.7189667345912E-09
(PID.TID 0000.0001) %MON dynstat_eta_min              =  -8.6581662604694E-09
(PID.TID 0000.0001) %MON dynstat_eta_mean             =   3.9181345835625E-13
(PID.TID 0000.0001) %MON dynstat_eta_sd               =   2.9168657008784E-09
(PID.TID 0000.0001) %MON dynstat_eta_del2             =   4.7972223375858E-14
(PID.TID 0000.0001) %MON dynstat_uvel_max             =   5.7326328089504E-09
(PID.TID 0000.0001) %MON dynstat_uvel_min             =  -6.8253715020827E-09
(PID.TID 0000.0001) %MON dynstat_uvel_mean            =   2.1329042480463E-13
(PID.TID 0000.0001) %MON dynstat_uvel_sd              =   1.8548351815030E-09
(PID.TID 0000.0001) %MON dynstat_uvel_del2            =   1.0401454735878E-13
(PID.TID 0000.0001) %MON dynstat_vvel_max             =   1.0601778964082E-08
(PID.TID 0000.0001) %MON dynstat_vvel_min             =  -7.9269452633594E-09
(PID.TID 0000.0001) %MON dynstat_vvel_mean            =   8.4605867238690E-15
(PID.TID 0000.0001) %MON dynstat_vvel_sd              =   2.9723510134386E-09
(PID.TID 0000.0001) %MON dynstat_vvel_del2            =   1.9986269937884E-13
(PID.TID 0000.0001) %MON dynstat_wvel_max             =   1.6721842367451E-14
(PID.TID 0000.0001) %MON dynstat_wvel_min             =  -1.4443143045995E-14
(PID.TID 0000.0001) %MON dynstat_wvel_mean            =   7.4989544490594E-28
(PID.TID 0000.0001) %MON dynstat_wvel_sd              =   6.6949197116327E-15
(PID.TID 0000.0001) %MON dynstat_wvel_del2            =   5.1475678252559E-20
(PID.TID 0000.0001) %MON dynstat_theta_max            =   2.0000000000000E+01
(PID.TID 0000.0001) %MON dynstat_theta_min            =   2.0000000000000E+01
(PID.TID 0000.0001) %MON dynstat_theta_mean           =   2.0000000000000E+01
(PID.TID 0000.0001) %MON dynstat_theta_sd             =   0.0000000000000E+00
(PID.TID 0000.0001) %MON dynstat_theta_del2           =   0.0000000000000E+00
(PID.TID 0000.0001) %MON dynstat_salt_max             =   3.0000000000000E+01
(PID.TID 0000.0001) %MON dynstat_salt_min             =   3.0000000000000E+01
(PID.TID 0000.0001) %MON dynstat_salt_mean            =   3.0000000000000E+01
(PID.TID 0000.0001) %MON dynstat_salt_sd              =   0.0000000000000E+00
(PID.TID 0000.0001) %MON dynstat_salt_del2            =   0.0000000000000E+00
(PID.TID 0000.0001) %MON trAdv_CFL_u_max              =   7.3653032013521E-09
(PID.TID 0000.0001) %MON trAdv_CFL_v_max              =   1.1504345711086E-08
(PID.TID 0000.0001) %MON trAdv_CFL_w_max              =   1.7991275908269E-14
(PID.TID 0000.0001) %MON advcfl_uvel_max              =   7.3714012222493E-09
(PID.TID 0000.0001) %MON advcfl_vvel_max              =   1.1449921281208E-08
(PID.TID 0000.0001) %MON advcfl_wvel_max              =   3.6119179513694E-14
(PID.TID 0000.0001) %MON advcfl_W_hf_max              =   0.0000000000000E+00
(PID.TID 0000.0001) %MON pe_b_mean                    =   8.3464516627394E-21
(PID.TID 0000.0001) %MON ke_max                       =   5.6192825160093E-17
(PID.TID 0000.0001) %MON ke_mean                      =   6.1126923070790E-18
(PID.TID 0000.0001) %MON ke_vol                       =   7.5645000000000E+15
(PID.TID 0000.0001) %MON vort_r_min                   =  -4.5202362267235E-13
(PID.TID 0000.0001) %MON vort_r_max                   =   5.2663587632900E-13
(PID.TID 0000.0001) %MON vort_a_mean                  =   8.2300000000000E-05
(PID.TID 0000.0001) %MON vort_a_sd                    =   7.1297555115610E-06
(PID.TID 0000.0001) %MON vort_p_mean                  =   8.3303658536585E-05
(PID.TID 0000.0001) %MON vort_p_sd                    =   1.7411470228515E-05
(PID.TID 0000.0001) %MON surfExpan_theta_mean         =   1.5055320033215E-26
(PID.TID 0000.0001) %MON surfExpan_salt_mean          =   2.2556595441010E-26
(PID.TID 0000.0001) // =======================================================
(PID.TID 0000.0001) // End MONITOR dynamic field statistics
(PID.TID 0000.0001) // =======================================================
 cg2d: Sum(rhs),rhsMax =  -3.43721779952978E-03  1.18283725890527E-09
 cg2d: Sum(rhs),rhsMax =  -3.45671626720224E-03  1.17616505833276E-09
 cg2d: Sum(rhs),rhsMax =  -3.47633985343898E-03  1.16952561703263E-09
 cg2d: Sum(rhs),rhsMax =  -3.49604088049538E-03  1.16293495502984E-09
 cg2d: Sum(rhs),rhsMax =  -3.51577820136867E-03  1.15640622241269E-09
 cg2d: Sum(rhs),rhsMax =  -3.53563255193288E-03  1.14991232472591E-09
 cg2d: Sum(rhs),rhsMax =  -3.55560162598339E-03  1.14345405740253E-09
 cg2d: Sum(rhs),rhsMax =  -3.57568304969276E-03  1.13703220522446E-09
 cg2d: Sum(rhs),rhsMax =  -3.59587431953582E-03  1.13064754133722E-09
 cg2d: Sum(rhs),rhsMax =  -3.61617286464255E-03  1.12430082789243E-09
 cg2d: Sum(rhs),rhsMax =  -3.63657600352778E-03  1.11799281518281E-09
 cg2d: Sum(rhs),rhsMax =  -3.65708095262851E-03  1.11172424217974E-09
 cg2d: Sum(rhs),rhsMax =  -3.67768482132587E-03  1.10549583577945E-09
 cg2d: Sum(rhs),rhsMax =  -3.69838463321890E-03  1.09930831124522E-09
 cg2d: Sum(rhs),rhsMax =  -3.71917731357206E-03  1.09316237155548E-09
 cg2d: Sum(rhs),rhsMax =  -3.74005965197994E-03  1.08705870776002E-09
(PID.TID 0000.0001)      cg2d_init_res =   1.82233014707305E-01
(PID.TID 0000.0001)      cg2d_iters(min,last) =      -1     545
(PID.TID 0000.0001)      cg2d_last_res =   9.90908181744300E-08
(PID.TID 0000.0001) // =======================================================
(PID.TID 0000.0001) // Begin MONITOR dynamic field statistics
(PID.TID 0000.0001) // =======================================================
(PID.TID 0000.0001) %MON time_tsnumber                =                  1744
(PID.TID 0000.0001) %MON time_secondsf                =   9.4176000000000E+06
(PID.TID 0000.0001) %MON dynstat_eta_max              =   6.1338324619231E-09
(PID.TID 0000.0001) %MON dynstat_eta_min              =  -7.9046726551123E-09
(PID.TID 0000.0001) %MON dynstat_eta_mean             =   3.9181296322692E-13
(PID.TID 0000.0001) %MON dynstat_eta_sd               =   2.9013149211575E-09
(PID.TID 0000.0001) %MON dynstat_eta_del2             =   4.7287006356768E-14
(PID.TID 0000.0001) %MON dynstat_uvel_max             =   5.5203868885295E-09
(PID.TID 0000.0001) %MON dynstat_uvel_min             =  -6.8810870604871E-09
(PID.TID 0000.0001) %MON dynstat_uvel_mean            =   1.6357992865376E-13
(PID.TID 0000.0001) %MON dynstat_uvel_sd              =   1.8066266336197E-09
(PID.TID 0000.0001) %MON dynstat_uvel_del2            =   1.0457858215421E-13
(PID.TID 0000.0001) %MON dynstat_vvel_max             =   9.8012536578811E-09
(PID.TID 0000.0001) %MON dynstat_vvel_min             =  -8.1253078171092E-09
(PID.TID 0000.0001) %MON dynstat_vvel_mean            =   8.7043471599296E-15
(PID.TID 0000.0001) %MON dynstat_vvel_sd              =   2.9504760639010E-09
(PID.TID 0000.0001) %MON dynstat_vvel_del2            =   1.9614484422116E-13
(PID.TID 0000.0001) %MON dynstat_wvel_max             =   1.7569326455913E-14
(PID.TID 0000.0001) %MON dynstat_wvel_min             =  -1.3614550478103E-14
(PID.TID 0000.0001) %MON dynstat_wvel_mean            =  -2.3450071839099E-28
(PID.TID 0000.0001) %MON dynstat_wvel_sd              =   6.5976737064939E-15
(PID.TID 0000.0001) %MON dynstat_wvel_del2            =   5.1294087209279E-20
(PID.TID 0000.0001) %MON dynstat_theta_max            =   2.0000000000000E+01
(PID.TID 0000.0001) %MON dynstat_theta_min            =   2.0000000000000E+01
(PID.TID 0000.0001) %MON dynstat_theta_mean           =   2.0000000000000E+01
(PID.TID 0000.0001) %MON dynstat_theta_sd             =   0.0000000000000E+00
(PID.TID 0000.0001) %MON dynstat_theta_del2           =   0.0000000000000E+00
(PID.TID 0000.0001) %MON dynstat_salt_max             =   3.0000000000000E+01
(PID.TID 0000.0001) %MON dynstat_salt_min             =   3.0000000000000E+01
(PID.TID 0000.0001) %MON dynstat_salt_mean            =   3.0000000000000E+01
(PID.TID 0000.0001) %MON dynstat_salt_sd              =   0.0000000000000E+00
(PID.TID 0000.0001) %MON dynstat_salt_del2            =   0.0000000000000E+00
(PID.TID 0000.0001) %MON trAdv_CFL_u_max              =   7.4304742527558E-09
(PID.TID 0000.0001) %MON trAdv_CFL_v_max              =   1.0638755813950E-08
(PID.TID 0000.0001) %MON trAdv_CFL_w_max              =   1.8928150901854E-14
(PID.TID 0000.0001) %MON advcfl_uvel_max              =   7.4315740253261E-09
(PID.TID 0000.0001) %MON advcfl_vvel_max              =   1.0585353950512E-08
(PID.TID 0000.0001) %MON advcfl_wvel_max              =   3.7949745144772E-14
(PID.TID 0000.0001) %MON advcfl_W_hf_max              =   0.0000000000000E+00
(PID.TID 0000.0001) %MON pe_b_mean                    =   8.2576934851691E-21
(PID.TID 0000.0001) %MON ke_max                       =   4.7995344840307E-17
(PID.TID 0000.0001) %MON ke_mean                      =   5.9602767516845E-18
(PID.TID 0000.0001) %MON ke_vol                       =   7.5645000000000E+15
(PID.TID 0000.0001) %MON vort_r_min                   =  -4.6405496599910E-13
(PID.TID 0000.0001) %MON vort_r_max                   =   4.8266323129546E-13
(PID.TID 0000.0001) %MON vort_a_mean                  =   8.2300000000000E-05
(PID.TID 0000.0001) %MON vort_a_sd                    =   7.1297555115570E-06
(PID.TID 0000.0001) %MON vort_p_mean                  =   8.3303658536585E-05
(PID.TID 0000.0001) %MON vort_p_sd                    =   1.7411470228535E-05
(PID.TID 0000.0001) %MON surfExpan_theta_mean         =  -4.7027242357620E-27
(PID.TID 0000.0001) %MON surfExpan_salt_mean          =  -7.0856363573734E-27
(PID.TID 0000.0001) // =======================================================
(PID.TID 0000.0001) // End MONITOR dynamic field statistics
(PID.TID 0000.0001) // =======================================================
 cg2d: Sum(rhs),rhsMax =  -3.76102837345833E-03  1.08099799842085E-09
 cg2d: Sum(rhs),rhsMax =  -3.78208007057267E-03  1.07498090989162E-09
 cg2d: Sum(rhs),rhsMax =  -3.80321125363003E-03  1.06900809584271E-09
 cg2d: Sum(rhs),rhsMax =  -3.80946119714991E-03  1.06725417490085E-09
 cg2d: Sum(rhs),rhsMax =  -3.80610129999860E-03  1.06819624456214E-09
 cg2d: Sum(rhs),rhsMax =  -3.80294507982146E-03  1.06908272037584E-09
 cg2d: Sum(rhs),rhsMax =  -3.79999326357684E-03  1.06991311377501E-09
 cg2d: Sum(rhs),rhsMax =  -3.79724661095166E-03  1.07068694915161E-09
 cg2d: Sum(rhs),rhsMax =  -3.79470586811022E-03  1.07140376466741E-09
 cg2d: Sum(rhs),rhsMax =  -3.79237180606772E-03  1.07206311164219E-09
 cg2d: Sum(rhs),rhsMax =  -3.79024520562273E-03  1.07266455533904E-09
 cg2d: Sum(rhs),rhsMax =  -3.78832686238206E-03  1.07320767436646E-09
 cg2d: Sum(rhs),rhsMax =  -3.78661757913979E-03  1.07369206143643E-09
 cg2d: Sum(rhs),rhsMax =  -3.78511818431203E-03  1.07411732278147E-09
 cg2d: Sum(rhs),rhsMax =  -3.78382951567602E-03  1.07448307888453E-09
 cg2d: Sum(rhs),rhsMax =  -3.78275242875357E-03  1.07478896391174E-09
(PID.TID 0000.0001)      cg2d_init_res =   1.82729377990248E-01
(PID.TID 0000.0001)      cg2d_iters(min,last) =      -1     545
(PID.TID 0000.0001)      cg2d_last_res =   9.66697936395760E-08
(PID.TID 0000.0001) // =======================================================
(PID.TID 0000.0001) // Begin MONITOR dynamic field statistics
(PID.TID 0000.0001) // =======================================================
(PID.TID 0000.0001) %MON time_tsnumber                =                  1760
(PID.TID 0000.0001) %MON time_secondsf                =   9.5040000000000E+06
(PID.TID 0000.0001) %MON dynstat_eta_max              =   6.7478554219771E-09
(PID.TID 0000.0001) %MON dynstat_eta_min              =  -7.0202259631297E-09
(PID.TID 0000.0001) %MON dynstat_eta_mean             =   3.9181259709797E-13
(PID.TID 0000.0001) %MON dynstat_eta_sd               =   2.8831422988457E-09
(PID.TID 0000.0001) %MON dynstat_eta_del2             =   4.6600057849255E-14
(PID.TID 0000.0001) %MON dynstat_uvel_max             =   5.3154408954500E-09
(PID.TID 0000.0001) %MON dynstat_uvel_min             =  -6.8543773079504E-09
(PID.TID 0000.0001) %MON dynstat_uvel_mean            =   1.0561626369628E-13
(PID.TID 0000.0001) %MON dynstat_uvel_sd              =   1.7584788073331E-09
(PID.TID 0000.0001) %MON dynstat_uvel_del2            =   1.0560843836975E-13
(PID.TID 0000.0001) %MON dynstat_vvel_max             =   9.3872560378052E-09
(PID.TID 0000.0001) %MON dynstat_vvel_min             =  -8.2751784818677E-09
(PID.TID 0000.0001) %MON dynstat_vvel_mean            =   9.5175445620861E-15
(PID.TID 0000.0001) %MON dynstat_vvel_sd              =   2.9291959754391E-09
(PID.TID 0000.0001) %MON dynstat_vvel_del2            =   1.9224823555924E-13
(PID.TID 0000.0001) %MON dynstat_wvel_max             =   1.8038563491807E-14
(PID.TID 0000.0001) %MON dynstat_wvel_min             =  -1.2509933166038E-14
(PID.TID 0000.0001) %MON dynstat_wvel_mean            =  -1.9848818610346E-29
(PID.TID 0000.0001) %MON dynstat_wvel_sd              =   6.5155401767332E-15
(PID.TID 0000.0001) %MON dynstat_wvel_del2            =   5.1024808965523E-20
(PID.TID 0000.0001) %MON dynstat_theta_max            =   2.0000000000000E+01
(PID.TID 0000.0001) %MON dynstat_theta_min            =   2.0000000000000E+01
(PID.TID 0000.0001) %MON dynstat_theta_mean           =   2.0000000000000E+01
(PID.TID 0000.0001) %MON dynstat_theta_sd             =   0.0000000000000E+00
(PID.TID 0000.0001) %MON dynstat_theta_del2           =   0.0000000000000E+00
(PID.TID 0000.0001) %MON dynstat_salt_max             =   3.0000000000000E+01
(PID.TID 0000.0001) %MON dynstat_salt_min             =   3.0000000000000E+01
(PID.TID 0000.0001) %MON dynstat_salt_mean            =   3.0000000000000E+01
(PID.TID 0000.0001) %MON dynstat_salt_sd              =   0.0000000000000E+00
(PID.TID 0000.0001) %MON dynstat_salt_del2            =   0.0000000000000E+00
(PID.TID 0000.0001) %MON trAdv_CFL_u_max              =   7.4065782672021E-09
(PID.TID 0000.0001) %MON trAdv_CFL_v_max              =   1.0133362337045E-08
(PID.TID 0000.0001) %MON trAdv_CFL_w_max              =   1.9461238856033E-14
(PID.TID 0000.0001) %MON advcfl_uvel_max              =   7.4027274925865E-09
(PID.TID 0000.0001) %MON advcfl_vvel_max              =   1.0138236520830E-08
(PID.TID 0000.0001) %MON advcfl_wvel_max              =   3.8963297142303E-14
(PID.TID 0000.0001) %MON advcfl_W_hf_max              =   0.0000000000000E+00
(PID.TID 0000.0001) %MON pe_b_mean                    =   8.1545719852008E-21
(PID.TID 0000.0001) %MON ke_max                       =   4.4477413451184E-17
(PID.TID 0000.0001) %MON ke_mean                      =   5.8124939297873E-18
(PID.TID 0000.0001) %MON ke_vol                       =   7.5645000000000E+15
(PID.TID 0000.0001) %MON vort_r_min                   =  -4.7132062362135E-13
(PID.TID 0000.0001) %MON vort_r_max                   =   4.4249256629337E-13
(PID.TID 0000.0001) %MON vort_a_mean                  =   8.2300000000000E-05
(PID.TID 0000.0001) %MON vort_a_sd                    =   7.1297555115557E-06
(PID.TID 0000.0001) %MON vort_p_mean                  =   8.3303658536586E-05
(PID.TID 0000.0001) %MON vort_p_sd                    =   1.7411470228563E-05
(PID.TID 0000.0001) %MON surfExpan_theta_mean         =  -3.0642084516332E-28
(PID.TID 0000.0001) %MON surfExpan_salt_mean          =  -4.9973852134255E-28
(PID.TID 0000.0001) // =======================================================
(PID.TID 0000.0001) // End MONITOR dynamic field statistics
(PID.TID 0000.0001) // =======================================================
 cg2d: Sum(rhs),rhsMax =  -3.78188780462483E-03  1.07503462641356E-09
 cg2d: Sum(rhs),rhsMax =  -3.78123653957208E-03  1.07521972877353E-09
 cg2d: Sum(rhs),rhsMax =  -3.78079954947642E-03  1.07534394787999E-09
 cg2d: Sum(rhs),rhsMax =  -3.78057776713466E-03  1.07540697459148E-09
 cg2d: Sum(rhs),rhsMax =  -3.78057215266721E-03  1.07540851437854E-09
 cg2d: Sum(rhs),rhsMax =  -3.78078369402836E-03  1.07534828680632E-09
 cg2d: Sum(rhs),rhsMax =  -3.78121339747869E-03  1.07522602614535E-09
 cg2d: Sum(rhs),rhsMax =  -3.78186229502440E-03  1.07504148087250E-09
 cg2d: Sum(rhs),rhsMax =  -3.78273144759017E-03  1.07479441424967E-09
 cg2d: Sum(rhs),rhsMax =  -3.78369161098167E-03  1.07452161466455E-09
 cg2d: Sum(rhs),rhsMax =  -3.78469984870214E-03  1.07423530818348E-09
 cg2d: Sum(rhs),rhsMax =  -3.78593249805102E-03  1.07388549631223E-09
 cg2d: Sum(rhs),rhsMax =  -3.78739062923940E-03  1.07347199854540E-09
 cg2d: Sum(rhs),rhsMax =  -3.78907535070652E-03  1.07299464887056E-09
 cg2d: Sum(rhs),rhsMax =  -3.79098780258205E-03  1.07245329632560E-09
 cg2d: Sum(rhs),rhsMax =  -3.79312915388404E-03  1.07184780448539E-09
(PID.TID 0000.0001)      cg2d_init_res =   1.81383305395700E-01
(PID.TID 0000.0001)      cg2d_iters(min,last) =      -1     545
(PID.TID 0000.0001)      cg2d_last_res =   9.81449265089640E-08
(PID.TID 0000.0001) // =======================================================
(PID.TID 0000.0001) // Begin MONITOR dynamic field statistics
(PID.TID 0000.0001) // =======================================================
(PID.TID 0000.0001) %MON time_tsnumber                =                  1776
(PID.TID 0000.0001) %MON time_secondsf                =   9.5904000000000E+06
(PID.TID 0000.0001) %MON dynstat_eta_max              =   7.3106509363676E-09
(PID.TID 0000.0001) %MON dynstat_eta_min              =  -7.0339828889106E-09
(PID.TID 0000.0001) %MON dynstat_eta_mean             =   3.9181227015306E-13
(PID.TID 0000.0001) %MON dynstat_eta_sd               =   2.8600573306368E-09
(PID.TID 0000.0001) %MON dynstat_eta_del2             =   4.5913898081794E-14
(PID.TID 0000.0001) %MON dynstat_uvel_max             =   5.1208360338327E-09
(PID.TID 0000.0001) %MON dynstat_uvel_min             =  -6.7492252471813E-09
(PID.TID 0000.0001) %MON dynstat_uvel_mean            =   4.2850198470082E-14
(PID.TID 0000.0001) %MON dynstat_uvel_sd              =   1.7131009168996E-09
(PID.TID 0000.0001) %MON dynstat_uvel_del2            =   1.0694303347828E-13
(PID.TID 0000.0001) %MON dynstat_vvel_max             =   9.3778600052076E-09
(PID.TID 0000.0001) %MON dynstat_vvel_min             =  -8.3512584054460E-09
(PID.TID 0000.0001) %MON dynstat_vvel_mean            =   1.0973539336121E-14
(PID.TID 0000.0001) %MON dynstat_vvel_sd              =   2.9069106478485E-09
(PID.TID 0000.0001) %MON dynstat_vvel_del2            =   1.8813392854280E-13
(PID.TID 0000.0001) %MON dynstat_wvel_max             =   1.8121143167127E-14
(PID.TID 0000.0001) %MON dynstat_wvel_min             =  -1.1183654803348E-14
(PID.TID 0000.0001) %MON dynstat_wvel_mean            =  -7.9878747343521E-28
(PID.TID 0000.0001) %MON dynstat_wvel_sd              =   6.4548087385645E-15
(PID.TID 0000.0001) %MON dynstat_wvel_del2            =   5.0678861572089E-20
(PID.TID 0000.0001) %MON dynstat_theta_max            =   2.0000000000000E+01
(PID.TID 0000.0001) %MON dynstat_theta_min            =   2.0000000000000E+01
(PID.TID 0000.0001) %MON dynstat_theta_mean           =   2.0000000000000E+01
(PID.TID 0000.0001) %MON dynstat_theta_sd             =   0.0000000000000E+00
(PID.TID 0000.0001) %MON dynstat_theta_del2           =   0.0000000000000E+00
(PID.TID 0000.0001) %MON dynstat_salt_max             =   3.0000000000000E+01
(PID.TID 0000.0001) %MON dynstat_salt_min             =   3.0000000000000E+01
(PID.TID 0000.0001) %MON dynstat_salt_mean            =   3.0000000000000E+01
(PID.TID 0000.0001) %MON dynstat_salt_sd              =   0.0000000000000E+00
(PID.TID 0000.0001) %MON dynstat_salt_del2            =   0.0000000000000E+00
(PID.TID 0000.0001) %MON trAdv_CFL_u_max              =   7.2991654003372E-09
(PID.TID 0000.0001) %MON trAdv_CFL_v_max              =   1.0133213701126E-08
(PID.TID 0000.0001) %MON trAdv_CFL_w_max              =   1.9578675025222E-14
(PID.TID 0000.0001) %MON advcfl_uvel_max              =   7.2891632669558E-09
(PID.TID 0000.0001) %MON advcfl_vvel_max              =   1.0128088805624E-08
(PID.TID 0000.0001) %MON advcfl_wvel_max              =   3.9141669240994E-14
(PID.TID 0000.0001) %MON advcfl_W_hf_max              =   0.0000000000000E+00
(PID.TID 0000.0001) %MON pe_b_mean                    =   8.0245094543734E-21
(PID.TID 0000.0001) %MON ke_max                       =   4.4212970122820E-17
(PID.TID 0000.0001) %MON ke_mean                      =   5.6692822066328E-18
(PID.TID 0000.0001) %MON ke_vol                       =   7.5645000000000E+15
(PID.TID 0000.0001) %MON vort_r_min                   =  -4.7307340368816E-13
(PID.TID 0000.0001) %MON vort_r_max                   =   4.0699884536403E-13
(PID.TID 0000.0001) %MON vort_a_mean                  =   8.2300000000000E-05
(PID.TID 0000.0001) %MON vort_a_sd                    =   7.1297555115653E-06
(PID.TID 0000.0001) %MON vort_p_mean                  =   8.3303658536585E-05
(PID.TID 0000.0001) %MON vort_p_sd                    =   1.7411470228603E-05
(PID.TID 0000.0001) %MON surfExpan_theta_mean         =  -1.5969398697954E-26
(PID.TID 0000.0001) %MON surfExpan_salt_mean          =  -2.4088288439581E-26
(PID.TID 0000.0001) // =======================================================
(PID.TID 0000.0001) // End MONITOR dynamic field statistics
(PID.TID 0000.0001) // =======================================================
 cg2d: Sum(rhs),rhsMax =  -3.79550061178944E-03  1.07117805201581E-09
 cg2d: Sum(rhs),rhsMax =  -3.79810340341174E-03  1.07044393215157E-09
 cg2d: Sum(rhs),rhsMax =  -3.80093880214036E-03  1.06964535324486E-09
 cg2d: Sum(rhs),rhsMax =  -3.80400812344799E-03  1.06878223823713E-09
 cg2d: Sum(rhs),rhsMax =  -3.80731271172682E-03  1.06785452519729E-09
 cg2d: Sum(rhs),rhsMax =  -3.81085394160677E-03  1.06686216678911E-09
 cg2d: Sum(rhs),rhsMax =  -3.81463324237870E-03  1.06580513080060E-09
 cg2d: Sum(rhs),rhsMax =  -3.81865207342806E-03  1.06468339961222E-09
 cg2d: Sum(rhs),rhsMax =  -3.82291192761143E-03  1.06349697070963E-09
 cg2d: Sum(rhs),rhsMax =  -3.82741438317341E-03  1.06224585626826E-09
 cg2d: Sum(rhs),rhsMax =  -3.83216099599794E-03  1.06093008313121E-09
 cg2d: Sum(rhs),rhsMax =  -3.83715339225000E-03  1.05954969323450E-09
 cg2d: Sum(rhs),rhsMax =  -3.84239324040859E-03  1.05810474313757E-09
 cg2d: Sum(rhs),rhsMax =  -3.84788225982543E-03  1.05659530417444E-09
 cg2d: Sum(rhs),rhsMax =  -3.85362221237281E-03  1.05502146240434E-09
 cg2d: Sum(rhs),rhsMax =  -3.85961490187807E-03  1.05338331856405E-09
(PID.TID 0000.0001)      cg2d_init_res =   1.82568380162340E-01
(PID.TID 0000.0001)      cg2d_iters(min,last) =      -1     546
(PID.TID 0000.0001)      cg2d_last_res =   9.76994970950647E-08
(PID.TID 0000.0001) // =======================================================
(PID.TID 0000.0001) // Begin MONITOR dynamic field statistics
(PID.TID 0000.0001) // =======================================================
(PID.TID 0000.0001) %MON time_tsnumber                =                  1792
(PID.TID 0000.0001) %MON time_secondsf                =   9.6768000000000E+06
(PID.TID 0000.0001) %MON dynstat_eta_max              =   7.8020006424863E-09
(PID.TID 0000.0001) %MON dynstat_eta_min              =  -7.1187983285010E-09
(PID.TID 0000.0001) %MON dynstat_eta_mean             =   3.9181196326934E-13
(PID.TID 0000.0001) %MON dynstat_eta_sd               =   2.8310459935014E-09
(PID.TID 0000.0001) %MON dynstat_eta_del2             =   4.5228321895548E-14
(PID.TID 0000.0001) %MON dynstat_uvel_max             =   4.9392279708332E-09
(PID.TID 0000.0001) %MON dynstat_uvel_min             =  -6.5744183322365E-09
(PID.TID 0000.0001) %MON dynstat_uvel_mean            =  -2.1045650460266E-14
(PID.TID 0000.0001) %MON dynstat_uvel_sd              =   1.6726711947054E-09
(PID.TID 0000.0001) %MON dynstat_uvel_del2            =   1.0833853476142E-13
(PID.TID 0000.0001) %MON dynstat_vvel_max             =   9.2596404240792E-09
(PID.TID 0000.0001) %MON dynstat_vvel_min             =  -8.3372085492940E-09
(PID.TID 0000.0001) %MON dynstat_vvel_mean            =   1.3092376811393E-14
(PID.TID 0000.0001) %MON dynstat_vvel_sd              =   2.8824479342686E-09
(PID.TID 0000.0001) %MON dynstat_vvel_del2            =   1.8380107182607E-13
(PID.TID 0000.0001) %MON dynstat_wvel_max             =   1.7827234030099E-14
(PID.TID 0000.0001) %MON dynstat_wvel_min             =  -9.6949551497971E-15
(PID.TID 0000.0001) %MON dynstat_wvel_mean            =  -7.8024428391734E-28
(PID.TID 0000.0001) %MON dynstat_wvel_sd              =   6.4175683487474E-15
(PID.TID 0000.0001) %MON dynstat_wvel_del2            =   5.0272431258486E-20
(PID.TID 0000.0001) %MON dynstat_theta_max            =   2.0000000000000E+01
(PID.TID 0000.0001) %MON dynstat_theta_min            =   2.0000000000000E+01
(PID.TID 0000.0001) %MON dynstat_theta_mean           =   2.0000000000000E+01
(PID.TID 0000.0001) %MON dynstat_theta_sd             =   0.0000000000000E+00
(PID.TID 0000.0001) %MON dynstat_theta_del2           =   0.0000000000000E+00
(PID.TID 0000.0001) %MON dynstat_salt_max             =   3.0000000000000E+01
(PID.TID 0000.0001) %MON dynstat_salt_min             =   3.0000000000000E+01
(PID.TID 0000.0001) %MON dynstat_salt_mean            =   3.0000000000000E+01
(PID.TID 0000.0001) %MON dynstat_salt_sd              =   0.0000000000000E+00
(PID.TID 0000.0001) %MON dynstat_salt_del2            =   0.0000000000000E+00
(PID.TID 0000.0001) %MON trAdv_CFL_u_max              =   7.1146325754656E-09
(PID.TID 0000.0001) %MON trAdv_CFL_v_max              =   1.0011302115854E-08
(PID.TID 0000.0001) %MON trAdv_CFL_w_max              =   1.9282633831663E-14
(PID.TID 0000.0001) %MON advcfl_uvel_max              =   7.1003717988154E-09
(PID.TID 0000.0001) %MON advcfl_vvel_max              =   1.0000411658006E-08
(PID.TID 0000.0001) %MON advcfl_wvel_max              =   3.8506825505014E-14
(PID.TID 0000.0001) %MON advcfl_W_hf_max              =   0.0000000000000E+00
(PID.TID 0000.0001) %MON pe_b_mean                    =   7.8625399609910E-21
(PID.TID 0000.0001) %MON ke_max                       =   4.2980878931846E-17
(PID.TID 0000.0001) %MON ke_mean                      =   5.5305936583236E-18
(PID.TID 0000.0001) %MON ke_vol                       =   7.5645000000000E+15
(PID.TID 0000.0001) %MON vort_r_min                   =  -4.6831631980825E-13
(PID.TID 0000.0001) %MON vort_r_max                   =   3.7698472731572E-13
(PID.TID 0000.0001) %MON vort_a_mean                  =   8.2300000000000E-05
(PID.TID 0000.0001) %MON vort_a_sd                    =   7.1297555115627E-06
(PID.TID 0000.0001) %MON vort_p_mean                  =   8.3303658536585E-05
(PID.TID 0000.0001) %MON vort_p_sd                    =   1.7411470228643E-05
(PID.TID 0000.0001) %MON surfExpan_theta_mean         =  -1.5598064134422E-26
(PID.TID 0000.0001) %MON surfExpan_salt_mean          =  -2.3456252318659E-26
(PID.TID 0000.0001) // =======================================================
(PID.TID 0000.0001) // End MONITOR dynamic field statistics
(PID.TID 0000.0001) // =======================================================
 cg2d: Sum(rhs),rhsMax =  -3.86586218863187E-03  1.05168098804647E-09
 cg2d: Sum(rhs),rhsMax =  -3.87236597690785E-03  1.04991460086049E-09
 cg2d: Sum(rhs),rhsMax =  -3.87912821669997E-03  1.04808430158723E-09
 cg2d: Sum(rhs),rhsMax =  -3.88615091951460E-03  1.04619024933591E-09
 cg2d: Sum(rhs),rhsMax =  -3.89327376752335E-03  1.04427616730425E-09
 cg2d: Sum(rhs),rhsMax =  -3.90051561636315E-03  1.04233727503375E-09
 cg2d: Sum(rhs),rhsMax =  -3.90802327359640E-03  1.04033481104027E-09
 cg2d: Sum(rhs),rhsMax =  -3.91579882053976E-03  1.03826899086426E-09
 cg2d: Sum(rhs),rhsMax =  -3.92384440792356E-03  1.03614004532484E-09
 cg2d: Sum(rhs),rhsMax =  -3.93216224750032E-03  1.03394821889815E-09
 cg2d: Sum(rhs),rhsMax =  -3.94075461054288E-03  1.03169377065036E-09
 cg2d: Sum(rhs),rhsMax =  -3.94962382217353E-03  1.02937697327973E-09
 cg2d: Sum(rhs),rhsMax =  -3.95877225630282E-03  1.02699811403932E-09
 cg2d: Sum(rhs),rhsMax =  -3.96820236562947E-03  1.02455749360158E-09
 cg2d: Sum(rhs),rhsMax =  -3.97791664939911E-03  1.02205542707545E-09
 cg2d: Sum(rhs),rhsMax =  -3.98791766695410E-03  1.01949224277801E-09
(PID.TID 0000.0001)      cg2d_init_res =   1.86602707683444E-01
(PID.TID 0000.0001)      cg2d_iters(min,last) =      -1     547
(PID.TID 0000.0001)      cg2d_last_res =   8.98967533086752E-08
(PID.TID 0000.0001) // =======================================================
(PID.TID 0000.0001) // Begin MONITOR dynamic field statistics
(PID.TID 0000.0001) // =======================================================
(PID.TID 0000.0001) %MON time_tsnumber                =                  1808
(PID.TID 0000.0001) %MON time_secondsf                =   9.7632000000000E+06
(PID.TID 0000.0001) %MON dynstat_eta_max              =   8.2039855559089E-09
(PID.TID 0000.0001) %MON dynstat_eta_min              =  -7.1019581114717E-09
(PID.TID 0000.0001) %MON dynstat_eta_mean             =   3.9181169178461E-13
(PID.TID 0000.0001) %MON dynstat_eta_sd               =   2.7965042247012E-09
(PID.TID 0000.0001) %MON dynstat_eta_del2             =   4.4541069905378E-14
(PID.TID 0000.0001) %MON dynstat_uvel_max             =   4.7772851204308E-09
(PID.TID 0000.0001) %MON dynstat_uvel_min             =  -6.3359403116501E-09
(PID.TID 0000.0001) %MON dynstat_uvel_mean            =  -8.2384556881006E-14
(PID.TID 0000.0001) %MON dynstat_uvel_sd              =   1.6383049358261E-09
(PID.TID 0000.0001) %MON dynstat_uvel_del2            =   1.0953322996935E-13
(PID.TID 0000.0001) %MON dynstat_vvel_max             =   9.0268948242237E-09
(PID.TID 0000.0001) %MON dynstat_vvel_min             =  -8.2259600939698E-09
(PID.TID 0000.0001) %MON dynstat_vvel_mean            =   1.5838738646029E-14
(PID.TID 0000.0001) %MON dynstat_vvel_sd              =   2.8553114936567E-09
(PID.TID 0000.0001) %MON dynstat_vvel_del2            =   1.7928081272874E-13
(PID.TID 0000.0001) %MON dynstat_wvel_max             =   1.7168806063506E-14
(PID.TID 0000.0001) %MON dynstat_wvel_min             =  -9.0055496482222E-15
(PID.TID 0000.0001) %MON dynstat_wvel_mean            =  -2.6815341789524E-28
(PID.TID 0000.0001) %MON dynstat_wvel_sd              =   6.4013263254389E-15
(PID.TID 0000.0001) %MON dynstat_wvel_del2            =   4.9741702953047E-20
(PID.TID 0000.0001) %MON dynstat_theta_max            =   2.0000000000000E+01
(PID.TID 0000.0001) %MON dynstat_theta_min            =   2.0000000000000E+01
(PID.TID 0000.0001) %MON dynstat_theta_mean           =   2.0000000000000E+01
(PID.TID 0000.0001) %MON dynstat_theta_sd             =   0.0000000000000E+00
(PID.TID 0000.0001) %MON dynstat_theta_del2           =   0.0000000000000E+00
(PID.TID 0000.0001) %MON dynstat_salt_max             =   3.0000000000000E+01
(PID.TID 0000.0001) %MON dynstat_salt_min             =   3.0000000000000E+01
(PID.TID 0000.0001) %MON dynstat_salt_mean            =   3.0000000000000E+01
(PID.TID 0000.0001) %MON dynstat_salt_sd              =   0.0000000000000E+00
(PID.TID 0000.0001) %MON dynstat_salt_del2            =   0.0000000000000E+00
(PID.TID 0000.0001) %MON trAdv_CFL_u_max              =   6.8607091191657E-09
(PID.TID 0000.0001) %MON trAdv_CFL_v_max              =   9.7678937364808E-09
(PID.TID 0000.0001) %MON trAdv_CFL_w_max              =   1.8599753915449E-14
(PID.TID 0000.0001) %MON advcfl_uvel_max              =   6.8428155365821E-09
(PID.TID 0000.0001) %MON advcfl_vvel_max              =   9.7490464101616E-09
(PID.TID 0000.0001) %MON advcfl_wvel_max              =   3.7084621097172E-14
(PID.TID 0000.0001) %MON advcfl_W_hf_max              =   0.0000000000000E+00
(PID.TID 0000.0001) %MON pe_b_mean                    =   7.6718477476748E-21
(PID.TID 0000.0001) %MON ke_max                       =   4.0760574010701E-17
(PID.TID 0000.0001) %MON ke_mean                      =   5.3963972864259E-18
(PID.TID 0000.0001) %MON ke_vol                       =   7.5645000000000E+15
(PID.TID 0000.0001) %MON vort_r_min                   =  -4.5711127385607E-13
(PID.TID 0000.0001) %MON vort_r_max                   =   3.5288532344431E-13
(PID.TID 0000.0001) %MON vort_a_mean                  =   8.2300000000000E-05
(PID.TID 0000.0001) %MON vort_a_sd                    =   7.1297555115602E-06
(PID.TID 0000.0001) %MON vort_p_mean                  =   8.3303658536586E-05
(PID.TID 0000.0001) %MON vort_p_sd                    =   1.7411470228683E-05
(PID.TID 0000.0001) %MON surfExpan_theta_mean         =  -5.3366916410723E-27
(PID.TID 0000.0001) %MON surfExpan_salt_mean          =  -8.0296271152825E-27
(PID.TID 0000.0001) // =======================================================
(PID.TID 0000.0001) // End MONITOR dynamic field statistics
(PID.TID 0000.0001) // =======================================================
 cg2d: Sum(rhs),rhsMax =  -3.99820804496187E-03  1.01686828334522E-09
 cg2d: Sum(rhs),rhsMax =  -4.00879047322165E-03  1.01418390439288E-09
 cg2d: Sum(rhs),rhsMax =  -4.01966771080282E-03  1.01143947572202E-09
 cg2d: Sum(rhs),rhsMax =  -4.03084257192652E-03  1.00863537987932E-09
 cg2d: Sum(rhs),rhsMax =  -4.04231793670553E-03  1.00577201344485E-09
 cg2d: Sum(rhs),rhsMax =  -4.05409676962893E-03  1.00284978550545E-09
 cg2d: Sum(rhs),rhsMax =  -4.06618208523428E-03  9.99869119009449E-10
 cg2d: Sum(rhs),rhsMax =  -4.07857697790423E-03  9.96830449170746E-10
 cg2d: Sum(rhs),rhsMax =  -4.09128460785271E-03  9.93734224871235E-10
 cg2d: Sum(rhs),rhsMax =  -4.10430821892357E-03  9.90580907016369E-10
 cg2d: Sum(rhs),rhsMax =  -4.11765111935215E-03  9.87370969963628E-10
 cg2d: Sum(rhs),rhsMax =  -4.13131668940463E-03  9.84104899852181E-10
 cg2d: Sum(rhs),rhsMax =  -4.14530838941337E-03  9.80783196034784E-10
 cg2d: Sum(rhs),rhsMax =  -4.15962976369513E-03  9.77406369404267E-10
 cg2d: Sum(rhs),rhsMax =  -4.17428442593216E-03  9.73974943806724E-10
 cg2d: Sum(rhs),rhsMax =  -4.18919438278664E-03  9.70508380387960E-10
(PID.TID 0000.0001)      cg2d_init_res =   1.94027112372549E-01
(PID.TID 0000.0001)      cg2d_iters(min,last) =      -1     547
(PID.TID 0000.0001)      cg2d_last_res =   9.49361538652130E-08
(PID.TID 0000.0001) // =======================================================
(PID.TID 0000.0001) // Begin MONITOR dynamic field statistics
(PID.TID 0000.0001) // =======================================================
(PID.TID 0000.0001) %MON time_tsnumber                =                  1824
(PID.TID 0000.0001) %MON time_secondsf                =   9.8496000000000E+06
(PID.TID 0000.0001) %MON dynstat_eta_max              =   8.5001056351015E-09
(PID.TID 0000.0001) %MON dynstat_eta_min              =  -6.9807707989703E-09
(PID.TID 0000.0001) %MON dynstat_eta_mean             =   3.9181141438882E-13
(PID.TID 0000.0001) %MON dynstat_eta_sd               =   2.7581175362869E-09
(PID.TID 0000.0001) %MON dynstat_eta_del2             =   4.3848790694995E-14
(PID.TID 0000.0001) %MON dynstat_uvel_max             =   4.6287447087120E-09
(PID.TID 0000.0001) %MON dynstat_uvel_min             =  -6.0460936675553E-09
(PID.TID 0000.0001) %MON dynstat_uvel_mean            =  -1.3767189290713E-13
(PID.TID 0000.0001) %MON dynstat_uvel_sd              =   1.6098028910696E-09
(PID.TID 0000.0001) %MON dynstat_uvel_del2            =   1.1030750363682E-13
(PID.TID 0000.0001) %MON dynstat_vvel_max             =   8.6929967678579E-09
(PID.TID 0000.0001) %MON dynstat_vvel_min             =  -8.0079507687743E-09
(PID.TID 0000.0001) %MON dynstat_vvel_mean            =   1.9123317732505E-14
(PID.TID 0000.0001) %MON dynstat_vvel_sd              =   2.8257527496580E-09
(PID.TID 0000.0001) %MON dynstat_vvel_del2            =   1.7462477207007E-13
(PID.TID 0000.0001) %MON dynstat_wvel_max             =   1.6182053201863E-14
(PID.TID 0000.0001) %MON dynstat_wvel_min             =  -1.0670304980698E-14
(PID.TID 0000.0001) %MON dynstat_wvel_mean            =   1.7896128144372E-28
(PID.TID 0000.0001) %MON dynstat_wvel_sd              =   6.3997231992974E-15
(PID.TID 0000.0001) %MON dynstat_wvel_del2            =   4.9260514922042E-20
(PID.TID 0000.0001) %MON dynstat_theta_max            =   2.0000000000000E+01
(PID.TID 0000.0001) %MON dynstat_theta_min            =   2.0000000000000E+01
(PID.TID 0000.0001) %MON dynstat_theta_mean           =   2.0000000000000E+01
(PID.TID 0000.0001) %MON dynstat_theta_sd             =   0.0000000000000E+00
(PID.TID 0000.0001) %MON dynstat_theta_del2           =   0.0000000000000E+00
(PID.TID 0000.0001) %MON dynstat_salt_max             =   3.0000000000000E+01
(PID.TID 0000.0001) %MON dynstat_salt_min             =   3.0000000000000E+01
(PID.TID 0000.0001) %MON dynstat_salt_mean            =   3.0000000000000E+01
(PID.TID 0000.0001) %MON dynstat_salt_sd              =   0.0000000000000E+00
(PID.TID 0000.0001) %MON dynstat_salt_del2            =   0.0000000000000E+00
(PID.TID 0000.0001) %MON trAdv_CFL_u_max              =   6.5512146526936E-09
(PID.TID 0000.0001) %MON trAdv_CFL_v_max              =   9.4150974115362E-09
(PID.TID 0000.0001) %MON trAdv_CFL_w_max              =   1.7554165669464E-14
(PID.TID 0000.0001) %MON advcfl_uvel_max              =   6.5297811609597E-09
(PID.TID 0000.0001) %MON advcfl_vvel_max              =   9.3884365092866E-09
(PID.TID 0000.0001) %MON advcfl_wvel_max              =   3.4953234916024E-14
(PID.TID 0000.0001) %MON advcfl_W_hf_max              =   0.0000000000000E+00
(PID.TID 0000.0001) %MON pe_b_mean                    =   7.4626754600373E-21
(PID.TID 0000.0001) %MON ke_max                       =   3.7778338238600E-17
(PID.TID 0000.0001) %MON ke_mean                      =   5.2666753507230E-18
(PID.TID 0000.0001) %MON ke_vol                       =   7.5645000000000E+15
(PID.TID 0000.0001) %MON vort_r_min                   =  -4.3936636057536E-13
(PID.TID 0000.0001) %MON vort_r_max                   =   3.3475870435126E-13
(PID.TID 0000.0001) %MON vort_a_mean                  =   8.2300000000000E-05
(PID.TID 0000.0001) %MON vort_a_sd                    =   7.1297555115533E-06
(PID.TID 0000.0001) %MON vort_p_mean                  =   8.3303658536586E-05
(PID.TID 0000.0001) %MON vort_p_sd                    =   1.7411470228723E-05
(PID.TID 0000.0001) %MON surfExpan_theta_mean         =   3.5460833622074E-27
(PID.TID 0000.0001) %MON surfExpan_salt_mean          =   5.2717798822616E-27
(PID.TID 0000.0001) // =======================================================
(PID.TID 0000.0001) // End MONITOR dynamic field statistics
(PID.TID 0000.0001) // =======================================================
 cg2d: Sum(rhs),rhsMax =  -4.20418717719496E-03  9.67047351128114E-10
 cg2d: Sum(rhs),rhsMax =  -4.21952117050507E-03  9.63532998302845E-10
 cg2d: Sum(rhs),rhsMax =  -4.23520015174905E-03  9.59965893889707E-10
 cg2d: Sum(rhs),rhsMax =  -4.25122797954643E-03  9.56346620818401E-10
 cg2d: Sum(rhs),rhsMax =  -4.26760859850405E-03  9.52675774066925E-10
 cg2d: Sum(rhs),rhsMax =  -4.28434604041578E-03  9.48953959246347E-10
 cg2d: Sum(rhs),rhsMax =  -4.30144441950060E-03  9.45181793749273E-10
 cg2d: Sum(rhs),rhsMax =  -4.30634273837566E-03  9.44106636656496E-10
 cg2d: Sum(rhs),rhsMax =  -4.30902903736353E-03  9.43518025154051E-10
 cg2d: Sum(rhs),rhsMax =  -4.31185251236173E-03  9.42900149132467E-10
 cg2d: Sum(rhs),rhsMax =  -4.31481250885629E-03  9.42253266630849E-10
 cg2d: Sum(rhs),rhsMax =  -4.31790838210958E-03  9.41577641226314E-10
 cg2d: Sum(rhs),rhsMax =  -4.32113946674991E-03  9.40873541563918E-10
 cg2d: Sum(rhs),rhsMax =  -4.32450510367046E-03  9.40141241669942E-10
 cg2d: Sum(rhs),rhsMax =  -4.32800463043170E-03  9.39381020471379E-10
 cg2d: Sum(rhs),rhsMax =  -4.33163736649489E-03  9.38593162113012E-10
(PID.TID 0000.0001)      cg2d_init_res =   1.98782392062686E-01
(PID.TID 0000.0001)      cg2d_iters(min,last) =      -1     547
(PID.TID 0000.0001)      cg2d_last_res =   9.49881824529549E-08
(PID.TID 0000.0001) // =======================================================
(PID.TID 0000.0001) // Begin MONITOR dynamic field statistics
(PID.TID 0000.0001) // =======================================================
(PID.TID 0000.0001) %MON time_tsnumber                =                  1840
(PID.TID 0000.0001) %MON time_secondsf                =   9.9360000000000E+06
(PID.TID 0000.0001) %MON dynstat_eta_max              =   8.6781268881424E-09
(PID.TID 0000.0001) %MON dynstat_eta_min              =  -6.7626185997392E-09
(PID.TID 0000.0001) %MON dynstat_eta_mean             =   3.9181111975577E-13
(PID.TID 0000.0001) %MON dynstat_eta_sd               =   2.7185118572619E-09
(PID.TID 0000.0001) %MON dynstat_eta_del2             =   4.3148081230405E-14
(PID.TID 0000.0001) %MON dynstat_uvel_max             =   4.4932112204872E-09
(PID.TID 0000.0001) %MON dynstat_uvel_min             =  -5.7173697638922E-09
(PID.TID 0000.0001) %MON dynstat_uvel_mean            =  -1.8379850648604E-13
(PID.TID 0000.0001) %MON dynstat_uvel_sd              =   1.5857706047690E-09
(PID.TID 0000.0001) %MON dynstat_uvel_del2            =   1.1052647782682E-13
(PID.TID 0000.0001) %MON dynstat_vvel_max             =   8.2582930406168E-09
(PID.TID 0000.0001) %MON dynstat_vvel_min             =  -7.6931370603596E-09
(PID.TID 0000.0001) %MON dynstat_vvel_mean            =   2.2807400126643E-14
(PID.TID 0000.0001) %MON dynstat_vvel_sd              =   2.7946613009201E-09
(PID.TID 0000.0001) %MON dynstat_vvel_del2            =   1.6989199437594E-13
(PID.TID 0000.0001) %MON dynstat_wvel_max             =   1.4898351102799E-14
(PID.TID 0000.0001) %MON dynstat_wvel_min             =  -1.2259630643996E-14
(PID.TID 0000.0001) %MON dynstat_wvel_mean            =   4.3982847948825E-28
(PID.TID 0000.0001) %MON dynstat_wvel_sd              =   6.4041099634717E-15
(PID.TID 0000.0001) %MON dynstat_wvel_del2            =   4.8782935945782E-20
(PID.TID 0000.0001) %MON dynstat_theta_max            =   2.0000000000000E+01
(PID.TID 0000.0001) %MON dynstat_theta_min            =   2.0000000000000E+01
(PID.TID 0000.0001) %MON dynstat_theta_mean           =   2.0000000000000E+01
(PID.TID 0000.0001) %MON dynstat_theta_sd             =   0.0000000000000E+00
(PID.TID 0000.0001) %MON dynstat_theta_del2           =   0.0000000000000E+00
(PID.TID 0000.0001) %MON dynstat_salt_max             =   3.0000000000000E+01
(PID.TID 0000.0001) %MON dynstat_salt_min             =   3.0000000000000E+01
(PID.TID 0000.0001) %MON dynstat_salt_mean            =   3.0000000000000E+01
(PID.TID 0000.0001) %MON dynstat_salt_sd              =   0.0000000000000E+00
(PID.TID 0000.0001) %MON dynstat_salt_del2            =   0.0000000000000E+00
(PID.TID 0000.0001) %MON trAdv_CFL_u_max              =   6.1983077263006E-09
(PID.TID 0000.0001) %MON trAdv_CFL_v_max              =   8.9505832633798E-09
(PID.TID 0000.0001) %MON trAdv_CFL_w_max              =   1.6186398917206E-14
(PID.TID 0000.0001) %MON advcfl_uvel_max              =   6.1747593450035E-09
(PID.TID 0000.0001) %MON advcfl_vvel_max              =   8.9189564838661E-09
(PID.TID 0000.0001) %MON advcfl_wvel_max              =   3.2180438382046E-14
(PID.TID 0000.0001) %MON advcfl_W_hf_max              =   0.0000000000000E+00
(PID.TID 0000.0001) %MON pe_b_mean                    =   7.2498910410292E-21
(PID.TID 0000.0001) %MON ke_max                       =   3.4117751016361E-17
(PID.TID 0000.0001) %MON ke_mean                      =   5.1414147497304E-18
(PID.TID 0000.0001) %MON ke_vol                       =   7.5645000000000E+15
(PID.TID 0000.0001) %MON vort_r_min                   =  -4.1565499341556E-13
(PID.TID 0000.0001) %MON vort_r_max                   =   3.2229795107223E-13
(PID.TID 0000.0001) %MON vort_a_mean                  =   8.2300000000000E-05
(PID.TID 0000.0001) %MON vort_a_sd                    =   7.1297555115598E-06
(PID.TID 0000.0001) %MON vort_p_mean                  =   8.3303658536585E-05
(PID.TID 0000.0001) %MON vort_p_sd                    =   1.7411470228766E-05
(PID.TID 0000.0001) %MON surfExpan_theta_mean         =   8.9182687574763E-27
(PID.TID 0000.0001) %MON surfExpan_salt_mean          =   1.3358075175738E-26
(PID.TID 0000.0001) // =======================================================
(PID.TID 0000.0001) // End MONITOR dynamic field statistics
(PID.TID 0000.0001) // =======================================================
 cg2d: Sum(rhs),rhsMax =  -4.33540263110693E-03  9.37777955471227E-10
 cg2d: Sum(rhs),rhsMax =  -4.33929974450674E-03  9.36935694470575E-10
 cg2d: Sum(rhs),rhsMax =  -4.34332800064221E-03  9.36066677596280E-10
 cg2d: Sum(rhs),rhsMax =  -4.34748671718588E-03  9.35171208206537E-10
 cg2d: Sum(rhs),rhsMax =  -4.35177519358614E-03  9.34249594046918E-10
 cg2d: Sum(rhs),rhsMax =  -4.35619270210778E-03  9.33302147555599E-10
 cg2d: Sum(rhs),rhsMax =  -4.36073852886997E-03  9.32329185382865E-10
 cg2d: Sum(rhs),rhsMax =  -4.36541193926083E-03  9.31331028686349E-10
 cg2d: Sum(rhs),rhsMax =  -4.37021220545233E-03  9.30308002658196E-10
 cg2d: Sum(rhs),rhsMax =  -4.37513856952877E-03  9.29260436808182E-10
 cg2d: Sum(rhs),rhsMax =  -4.38019028383736E-03  9.28188664500721E-10
 cg2d: Sum(rhs),rhsMax =  -4.38536657686756E-03  9.27093023224406E-10
 cg2d: Sum(rhs),rhsMax =  -4.39066667079591E-03  9.25973854139978E-10
 cg2d: Sum(rhs),rhsMax =  -4.39608978862552E-03  9.24831502335249E-10
 cg2d: Sum(rhs),rhsMax =  -4.40163512898128E-03  9.23666316385394E-10
 cg2d: Sum(rhs),rhsMax =  -4.40730187470803E-03  9.22478648592484E-10
(PID.TID 0000.0001)      cg2d_init_res =   2.00624576503129E-01
(PID.TID 0000.0001)      cg2d_iters(min,last) =      -1     547
(PID.TID 0000.0001)      cg2d_last_res =   8.84935114384450E-08
(PID.TID 0000.0001) // =======================================================
(PID.TID 0000.0001) // Begin MONITOR dynamic field statistics
(PID.TID 0000.0001) // =======================================================
(PID.TID 0000.0001) %MON time_tsnumber                =                  1856
(PID.TID 0000.0001) %MON time_secondsf                =   1.0022400000000E+07
(PID.TID 0000.0001) %MON dynstat_eta_max              =   8.7227414256817E-09
(PID.TID 0000.0001) %MON dynstat_eta_min              =  -6.4537707591263E-09
(PID.TID 0000.0001) %MON dynstat_eta_mean             =   3.9181079544039E-13
(PID.TID 0000.0001) %MON dynstat_eta_sd               =   2.6807274491983E-09
(PID.TID 0000.0001) %MON dynstat_eta_del2             =   4.2436418016462E-14
(PID.TID 0000.0001) %MON dynstat_uvel_max             =   4.3698916011646E-09
(PID.TID 0000.0001) %MON dynstat_uvel_min             =  -5.3602142171569E-09
(PID.TID 0000.0001) %MON dynstat_uvel_mean            =  -2.1821064309285E-13
(PID.TID 0000.0001) %MON dynstat_uvel_sd              =   1.5640732646094E-09
(PID.TID 0000.0001) %MON dynstat_uvel_del2            =   1.1016093401985E-13
(PID.TID 0000.0001) %MON dynstat_vvel_max             =   7.7314129943310E-09
(PID.TID 0000.0001) %MON dynstat_vvel_min             =  -8.1960065485503E-09
(PID.TID 0000.0001) %MON dynstat_vvel_mean            =   2.6710479351839E-14
(PID.TID 0000.0001) %MON dynstat_vvel_sd              =   2.7633043751941E-09
(PID.TID 0000.0001) %MON dynstat_vvel_del2            =   1.6513826491394E-13
(PID.TID 0000.0001) %MON dynstat_wvel_max             =   1.3370317091255E-14
(PID.TID 0000.0001) %MON dynstat_wvel_min             =  -1.3731096698555E-14
(PID.TID 0000.0001) %MON dynstat_wvel_mean            =   8.3326889712035E-28
(PID.TID 0000.0001) %MON dynstat_wvel_sd              =   6.4055119192354E-15
(PID.TID 0000.0001) %MON dynstat_wvel_del2            =   4.8324892255414E-20
(PID.TID 0000.0001) %MON dynstat_theta_max            =   2.0000000000000E+01
(PID.TID 0000.0001) %MON dynstat_theta_min            =   2.0000000000000E+01
(PID.TID 0000.0001) %MON dynstat_theta_mean           =   2.0000000000000E+01
(PID.TID 0000.0001) %MON dynstat_theta_sd             =   0.0000000000000E+00
(PID.TID 0000.0001) %MON dynstat_theta_del2           =   0.0000000000000E+00
(PID.TID 0000.0001) %MON dynstat_salt_max             =   3.0000000000000E+01
(PID.TID 0000.0001) %MON dynstat_salt_min             =   3.0000000000000E+01
(PID.TID 0000.0001) %MON dynstat_salt_mean            =   3.0000000000000E+01
(PID.TID 0000.0001) %MON dynstat_salt_sd              =   0.0000000000000E+00
(PID.TID 0000.0001) %MON dynstat_salt_del2            =   0.0000000000000E+00
(PID.TID 0000.0001) %MON trAdv_CFL_u_max              =   5.8138439345389E-09
(PID.TID 0000.0001) %MON trAdv_CFL_v_max              =   8.8180027399552E-09
(PID.TID 0000.0001) %MON trAdv_CFL_w_max              =   1.4548235638379E-14
(PID.TID 0000.0001) %MON advcfl_uvel_max              =   5.7890313545294E-09
(PID.TID 0000.0001) %MON advcfl_vvel_max              =   8.8516870724343E-09
(PID.TID 0000.0001) %MON advcfl_wvel_max              =   2.9659168868879E-14
(PID.TID 0000.0001) %MON advcfl_W_hf_max              =   0.0000000000000E+00
(PID.TID 0000.0001) %MON pe_b_mean                    =   7.0497601140035E-21
(PID.TID 0000.0001) %MON ke_max                       =   3.5255083394213E-17
(PID.TID 0000.0001) %MON ke_mean                      =   5.0205959194385E-18
(PID.TID 0000.0001) %MON ke_vol                       =   7.5645000000000E+15
(PID.TID 0000.0001) %MON vort_r_min                   =  -3.8700916654319E-13
(PID.TID 0000.0001) %MON vort_r_max                   =   3.1486369590251E-13
(PID.TID 0000.0001) %MON vort_a_mean                  =   8.2300000000001E-05
(PID.TID 0000.0001) %MON vort_a_sd                    =   7.1297555115446E-06
(PID.TID 0000.0001) %MON vort_p_mean                  =   8.3303658536586E-05
(PID.TID 0000.0001) %MON vort_p_sd                    =   1.7411470228795E-05
(PID.TID 0000.0001) %MON surfExpan_theta_mean         =   1.6687027193064E-26
(PID.TID 0000.0001) %MON surfExpan_salt_mean          =   2.5042658696339E-26
(PID.TID 0000.0001) // =======================================================
(PID.TID 0000.0001) // End MONITOR dynamic field statistics
(PID.TID 0000.0001) // =======================================================
 cg2d: Sum(rhs),rhsMax =  -4.41308921795086E-03  9.21268854558455E-10
 cg2d: Sum(rhs),rhsMax =  -4.41885152249988E-03  9.20067421511708E-10
 cg2d: Sum(rhs),rhsMax =  -4.42472879224598E-03  9.18845242553002E-10
 cg2d: Sum(rhs),rhsMax =  -4.43072137883629E-03  9.17602422370438E-10
 cg2d: Sum(rhs),rhsMax =  -4.43682841526449E-03  9.16339319972656E-10
 cg2d: Sum(rhs),rhsMax =  -4.44304902645991E-03  9.15056297611436E-10
 cg2d: Sum(rhs),rhsMax =  -4.44938231415503E-03  9.13753720135771E-10
 cg2d: Sum(rhs),rhsMax =  -4.45582737181790E-03  9.12431955257601E-10
 cg2d: Sum(rhs),rhsMax =  -4.46238328530206E-03  9.11091373095567E-10
 cg2d: Sum(rhs),rhsMax =  -4.46904912025718E-03  9.09732346438872E-10
 cg2d: Sum(rhs),rhsMax =  -4.47582392838562E-03  9.08355250277267E-10
 cg2d: Sum(rhs),rhsMax =  -4.48270673983101E-03  9.06960462074577E-10
 cg2d: Sum(rhs),rhsMax =  -4.48969657382434E-03  9.05548361289556E-10
 cg2d: Sum(rhs),rhsMax =  -4.49679243506924E-03  9.04119329656214E-10
 cg2d: Sum(rhs),rhsMax =  -4.50399323074252E-03  9.02673750567084E-10
 cg2d: Sum(rhs),rhsMax =  -4.51129801056856E-03  9.01212009809874E-10
(PID.TID 0000.0001)      cg2d_init_res =   2.03919322322811E-01
(PID.TID 0000.0001)      cg2d_iters(min,last) =      -1     544
(PID.TID 0000.0001)      cg2d_last_res =   9.78095605445109E-08
(PID.TID 0000.0001) // =======================================================
(PID.TID 0000.0001) // Begin MONITOR dynamic field statistics
(PID.TID 0000.0001) // =======================================================
(PID.TID 0000.0001) %MON time_tsnumber                =                  1872
(PID.TID 0000.0001) %MON time_secondsf                =   1.0108800000000E+07
(PID.TID 0000.0001) %MON dynstat_eta_max              =   8.6360959644034E-09
(PID.TID 0000.0001) %MON dynstat_eta_min              =  -6.0641122026450E-09
(PID.TID 0000.0001) %MON dynstat_eta_mean             =   3.9181019404518E-13
(PID.TID 0000.0001) %MON dynstat_eta_sd               =   2.6476015371683E-09
(PID.TID 0000.0001) %MON dynstat_eta_del2             =   4.1712848885019E-14
(PID.TID 0000.0001) %MON dynstat_uvel_max             =   4.2587468798218E-09
(PID.TID 0000.0001) %MON dynstat_uvel_min             =  -4.9878771166632E-09
(PID.TID 0000.0001) %MON dynstat_uvel_mean            =  -2.3904729013360E-13
(PID.TID 0000.0001) %MON dynstat_uvel_sd              =   1.5424764738396E-09
(PID.TID 0000.0001) %MON dynstat_uvel_del2            =   1.0928663838694E-13
(PID.TID 0000.0001) %MON dynstat_vvel_max             =   7.1366228268909E-09
(PID.TID 0000.0001) %MON dynstat_vvel_min             =  -8.6414518999935E-09
(PID.TID 0000.0001) %MON dynstat_vvel_mean            =   3.0620420819276E-14
(PID.TID 0000.0001) %MON dynstat_vvel_sd              =   2.7329770785313E-09
(PID.TID 0000.0001) %MON dynstat_vvel_del2            =   1.6041075563850E-13
(PID.TID 0000.0001) %MON dynstat_wvel_max             =   1.2403478332201E-14
(PID.TID 0000.0001) %MON dynstat_wvel_min             =  -1.5049170352111E-14
(PID.TID 0000.0001) %MON dynstat_wvel_mean            =  -2.6551773846663E-28
(PID.TID 0000.0001) %MON dynstat_wvel_sd              =   6.3964787611728E-15
(PID.TID 0000.0001) %MON dynstat_wvel_del2            =   4.7937172190038E-20
(PID.TID 0000.0001) %MON dynstat_theta_max            =   2.0000000000000E+01
(PID.TID 0000.0001) %MON dynstat_theta_min            =   2.0000000000000E+01
(PID.TID 0000.0001) %MON dynstat_theta_mean           =   2.0000000000000E+01
(PID.TID 0000.0001) %MON dynstat_theta_sd             =   0.0000000000000E+00
(PID.TID 0000.0001) %MON dynstat_theta_del2           =   0.0000000000000E+00
(PID.TID 0000.0001) %MON dynstat_salt_max             =   3.0000000000000E+01
(PID.TID 0000.0001) %MON dynstat_salt_min             =   3.0000000000000E+01
(PID.TID 0000.0001) %MON dynstat_salt_mean            =   3.0000000000000E+01
(PID.TID 0000.0001) %MON dynstat_salt_sd              =   0.0000000000000E+00
(PID.TID 0000.0001) %MON dynstat_salt_del2            =   0.0000000000000E+00
(PID.TID 0000.0001) %MON trAdv_CFL_u_max              =   5.4121485015393E-09
(PID.TID 0000.0001) %MON trAdv_CFL_v_max              =   9.3061058746545E-09
(PID.TID 0000.0001) %MON trAdv_CFL_w_max              =   1.3378733306002E-14
(PID.TID 0000.0001) %MON advcfl_uvel_max              =   5.3869072859962E-09
(PID.TID 0000.0001) %MON advcfl_vvel_max              =   9.3327680519930E-09
(PID.TID 0000.0001) %MON advcfl_wvel_max              =   3.2506207960559E-14
(PID.TID 0000.0001) %MON advcfl_W_hf_max              =   0.0000000000000E+00
(PID.TID 0000.0001) %MON pe_b_mean                    =   6.8766079661215E-21
(PID.TID 0000.0001) %MON ke_max                       =   3.8721040005311E-17
(PID.TID 0000.0001) %MON ke_mean                      =   4.9041816531317E-18
(PID.TID 0000.0001) %MON ke_vol                       =   7.5645000000000E+15
(PID.TID 0000.0001) %MON vort_r_min                   =  -3.5709483055748E-13
(PID.TID 0000.0001) %MON vort_r_max                   =   3.1153496605571E-13
(PID.TID 0000.0001) %MON vort_a_mean                  =   8.2299999999999E-05
(PID.TID 0000.0001) %MON vort_a_sd                    =   7.1297555115719E-06
(PID.TID 0000.0001) %MON vort_p_mean                  =   8.3303658536585E-05
(PID.TID 0000.0001) %MON vort_p_sd                    =   1.7411470228837E-05
(PID.TID 0000.0001) %MON surfExpan_theta_mean         =  -5.2763574097762E-27
(PID.TID 0000.0001) %MON surfExpan_salt_mean          =  -7.9075578486490E-27
(PID.TID 0000.0001) // =======================================================
(PID.TID 0000.0001) // End MONITOR dynamic field statistics
(PID.TID 0000.0001) // =======================================================
 cg2d: Sum(rhs),rhsMax =  -4.51870572236502E-03  8.99734494584378E-10
 cg2d: Sum(rhs),rhsMax =  -4.52621530049560E-03  8.98241593810216E-10
 cg2d: Sum(rhs),rhsMax =  -4.53382567146702E-03  8.96733698015346E-10
 cg2d: Sum(rhs),rhsMax =  -4.54153572541623E-03  8.95211199195703E-10
 cg2d: Sum(rhs),rhsMax =  -4.54934434074543E-03  8.93674490701420E-10
 cg2d: Sum(rhs),rhsMax =  -4.55725038452708E-03  8.92123967173812E-10
 cg2d: Sum(rhs),rhsMax =  -4.56525269290952E-03  8.90560024365714E-10
 cg2d: Sum(rhs),rhsMax =  -4.57335008151416E-03  8.88983059129899E-10
 cg2d: Sum(rhs),rhsMax =  -4.58154134004511E-03  8.87393469253384E-10
 cg2d: Sum(rhs),rhsMax =  -4.58982523849827E-03  8.85791653373636E-10
 cg2d: Sum(rhs),rhsMax =  -4.59820051272483E-03  8.84178010873742E-10
 cg2d: Sum(rhs),rhsMax =  -4.60666559031215E-03  8.82552941613599E-10
 cg2d: Sum(rhs),rhsMax =  -4.61521930084952E-03  8.80916846703037E-10
 cg2d: Sum(rhs),rhsMax =  -4.62385964667983E-03  8.79270126059517E-10
 cg2d: Sum(rhs),rhsMax =  -4.63258429842961E-03  8.77613182466132E-10
 cg2d: Sum(rhs),rhsMax =  -4.64138941063039E-03  8.75946416789956E-10
(PID.TID 0000.0001)      cg2d_init_res =   2.08507984349862E-01
(PID.TID 0000.0001)      cg2d_iters(min,last) =      -1     456
(PID.TID 0000.0001)      cg2d_last_res =   8.95689320898010E-08
(PID.TID 0000.0001) // =======================================================
(PID.TID 0000.0001) // Begin MONITOR dynamic field statistics
(PID.TID 0000.0001) // =======================================================
(PID.TID 0000.0001) %MON time_tsnumber                =                  1888
(PID.TID 0000.0001) %MON time_secondsf                =   1.0195200000000E+07
(PID.TID 0000.0001) %MON dynstat_eta_max              =   8.4085300199542E-09
(PID.TID 0000.0001) %MON dynstat_eta_min              =  -5.6057831893522E-09
(PID.TID 0000.0001) %MON dynstat_eta_mean             =   3.9173695369821E-13
(PID.TID 0000.0001) %MON dynstat_eta_sd               =   2.6211808435483E-09
(PID.TID 0000.0001) %MON dynstat_eta_del2             =   4.0978384680437E-14
(PID.TID 0000.0001) %MON dynstat_uvel_max             =   4.1548685024629E-09
(PID.TID 0000.0001) %MON dynstat_uvel_min             =  -4.6600933630182E-09
(PID.TID 0000.0001) %MON dynstat_uvel_mean            =  -2.4523762948007E-13
(PID.TID 0000.0001) %MON dynstat_uvel_sd              =   1.5192812201811E-09
(PID.TID 0000.0001) %MON dynstat_uvel_del2            =   1.0806375980861E-13
(PID.TID 0000.0001) %MON dynstat_vvel_max             =   6.5548921581643E-09
(PID.TID 0000.0001) %MON dynstat_vvel_min             =  -9.0203098331251E-09
(PID.TID 0000.0001) %MON dynstat_vvel_mean            =   3.4305615604002E-14
(PID.TID 0000.0001) %MON dynstat_vvel_sd              =   2.7046477046357E-09
(PID.TID 0000.0001) %MON dynstat_vvel_del2            =   1.5574922460392E-13
(PID.TID 0000.0001) %MON dynstat_wvel_max             =   1.2478554780593E-14
(PID.TID 0000.0001) %MON dynstat_wvel_min             =  -1.6166310277121E-14
(PID.TID 0000.0001) %MON dynstat_wvel_mean            =  -7.1667566036343E-28
(PID.TID 0000.0001) %MON dynstat_wvel_sd              =   6.3724600523338E-15
(PID.TID 0000.0001) %MON dynstat_wvel_del2            =   4.7562091354676E-20
(PID.TID 0000.0001) %MON dynstat_theta_max            =   2.0000000000000E+01
(PID.TID 0000.0001) %MON dynstat_theta_min            =   2.0000000000000E+01
(PID.TID 0000.0001) %MON dynstat_theta_mean           =   2.0000000000000E+01
(PID.TID 0000.0001) %MON dynstat_theta_sd             =   0.0000000000000E+00
(PID.TID 0000.0001) %MON dynstat_theta_del2           =   0.0000000000000E+00
(PID.TID 0000.0001) %MON dynstat_salt_max             =   3.0000000000000E+01
(PID.TID 0000.0001) %MON dynstat_salt_min             =   3.0000000000000E+01
(PID.TID 0000.0001) %MON dynstat_salt_mean            =   3.0000000000000E+01
(PID.TID 0000.0001) %MON dynstat_salt_sd              =   0.0000000000000E+00
(PID.TID 0000.0001) %MON dynstat_salt_del2            =   0.0000000000000E+00
(PID.TID 0000.0001) %MON trAdv_CFL_u_max              =   5.0398222426449E-09
(PID.TID 0000.0001) %MON trAdv_CFL_v_max              =   9.7188845129325E-09
(PID.TID 0000.0001) %MON trAdv_CFL_w_max              =   1.3481535386450E-14
(PID.TID 0000.0001) %MON advcfl_uvel_max              =   5.0329008320597E-09
(PID.TID 0000.0001) %MON advcfl_vvel_max              =   9.7419346197751E-09
(PID.TID 0000.0001) %MON advcfl_wvel_max              =   3.4919230198582E-14
(PID.TID 0000.0001) %MON advcfl_W_hf_max              =   0.0000000000000E+00
(PID.TID 0000.0001) %MON pe_b_mean                    =   6.7400479738493E-21
(PID.TID 0000.0001) %MON ke_max                       =   4.1745281118300E-17
(PID.TID 0000.0001) %MON ke_mean                      =   4.7921077233916E-18
(PID.TID 0000.0001) %MON ke_vol                       =   7.5645000000000E+15
(PID.TID 0000.0001) %MON vort_r_min                   =  -3.4858778968627E-13
(PID.TID 0000.0001) %MON vort_r_max                   =   3.1117515218532E-13
(PID.TID 0000.0001) %MON vort_a_mean                  =   8.2299999999999E-05
(PID.TID 0000.0001) %MON vort_a_sd                    =   7.1297555115660E-06
(PID.TID 0000.0001) %MON vort_p_mean                  =   8.3303658536585E-05
(PID.TID 0000.0001) %MON vort_p_sd                    =   1.7411470228860E-05
(PID.TID 0000.0001) %MON surfExpan_theta_mean         =  -1.4323978271204E-26
(PID.TID 0000.0001) %MON surfExpan_salt_mean          =  -2.1503786507613E-26
(PID.TID 0000.0001) // =======================================================
(PID.TID 0000.0001) // End MONITOR dynamic field statistics
(PID.TID 0000.0001) // =======================================================
 cg2d: Sum(rhs),rhsMax =  -4.64944966204339E-03  8.74270230352119E-10
 cg2d: Sum(rhs),rhsMax =  -4.65843991835618E-03  8.72585024741065E-10
 cg2d: Sum(rhs),rhsMax =  -4.66750536847937E-03  8.70891202663558E-10
 cg2d: Sum(rhs),rhsMax =  -4.67664854067689E-03  8.69189164594024E-10
 cg2d: Sum(rhs),rhsMax =  -4.68586892749801E-03  8.67479311844726E-10
 cg2d: Sum(rhs),rhsMax =  -4.69516542809562E-03  8.65762045264163E-10
 cg2d: Sum(rhs),rhsMax =  -4.70453673927386E-03  8.64037765076695E-10
 cg2d: Sum(rhs),rhsMax =  -4.71398146113190E-03  8.62306870951198E-10
 cg2d: Sum(rhs),rhsMax =  -4.72349812854227E-03  8.60569761841023E-10
 cg2d: Sum(rhs),rhsMax =  -4.73308522940827E-03  8.58826835918513E-10
 cg2d: Sum(rhs),rhsMax =  -4.74274122690462E-03  8.57078490432694E-10
 cg2d: Sum(rhs),rhsMax =  -4.75246453873618E-03  8.55325121652372E-10
 cg2d: Sum(rhs),rhsMax =  -4.76225343411439E-03  8.53567124635095E-10
 cg2d: Sum(rhs),rhsMax =  -4.77210641653163E-03  8.51804893264118E-10
 cg2d: Sum(rhs),rhsMax =  -4.78202171843077E-03  8.50038820927583E-10
 cg2d: Sum(rhs),rhsMax =  -4.79199776760366E-03  8.48269297773839E-10
(PID.TID 0000.0001)      cg2d_init_res =   2.14110671763591E-01
(PID.TID 0000.0001)      cg2d_iters(min,last) =      -1     543
(PID.TID 0000.0001)      cg2d_last_res =   9.83702413973617E-08
(PID.TID 0000.0001) // =======================================================
(PID.TID 0000.0001) // Begin MONITOR dynamic field statistics
(PID.TID 0000.0001) // =======================================================
(PID.TID 0000.0001) %MON time_tsnumber                =                  1904
(PID.TID 0000.0001) %MON time_secondsf                =   1.0281600000000E+07
(PID.TID 0000.0001) %MON dynstat_eta_max              =   8.0518293445599E-09
(PID.TID 0000.0001) %MON dynstat_eta_min              =  -5.0926444170015E-09
(PID.TID 0000.0001) %MON dynstat_eta_mean             =   3.9173980760411E-13
(PID.TID 0000.0001) %MON dynstat_eta_sd               =   2.6023019921168E-09
(PID.TID 0000.0001) %MON dynstat_eta_del2             =   4.0236092313772E-14
(PID.TID 0000.0001) %MON dynstat_uvel_max             =   4.0552342138323E-09
(PID.TID 0000.0001) %MON dynstat_uvel_min             =  -4.5123347495920E-09
(PID.TID 0000.0001) %MON dynstat_uvel_mean            =  -2.3655380061797E-13
(PID.TID 0000.0001) %MON dynstat_uvel_sd              =   1.4937931710264E-09
(PID.TID 0000.0001) %MON dynstat_uvel_del2            =   1.0669908993888E-13
(PID.TID 0000.0001) %MON dynstat_vvel_max             =   6.4808532467239E-09
(PID.TID 0000.0001) %MON dynstat_vvel_min             =  -9.3110334715497E-09
(PID.TID 0000.0001) %MON dynstat_vvel_mean            =   3.7528332343155E-14
(PID.TID 0000.0001) %MON dynstat_vvel_sd              =   2.6786888148240E-09
(PID.TID 0000.0001) %MON dynstat_vvel_del2            =   1.5119279894066E-13
(PID.TID 0000.0001) %MON dynstat_wvel_max             =   1.2243621972940E-14
(PID.TID 0000.0001) %MON dynstat_wvel_min             =  -1.7043503814929E-14
(PID.TID 0000.0001) %MON dynstat_wvel_mean            =   3.8256017400040E-28
(PID.TID 0000.0001) %MON dynstat_wvel_sd              =   6.3325254037955E-15
(PID.TID 0000.0001) %MON dynstat_wvel_del2            =   4.7275358945242E-20
(PID.TID 0000.0001) %MON dynstat_theta_max            =   2.0000000000000E+01
(PID.TID 0000.0001) %MON dynstat_theta_min            =   2.0000000000000E+01
(PID.TID 0000.0001) %MON dynstat_theta_mean           =   2.0000000000000E+01
(PID.TID 0000.0001) %MON dynstat_theta_sd             =   0.0000000000000E+00
(PID.TID 0000.0001) %MON dynstat_theta_del2           =   0.0000000000000E+00
(PID.TID 0000.0001) %MON dynstat_salt_max             =   3.0000000000000E+01
(PID.TID 0000.0001) %MON dynstat_salt_min             =   3.0000000000000E+01
(PID.TID 0000.0001) %MON dynstat_salt_mean            =   3.0000000000000E+01
(PID.TID 0000.0001) %MON dynstat_salt_sd              =   0.0000000000000E+00
(PID.TID 0000.0001) %MON dynstat_salt_del2            =   0.0000000000000E+00
(PID.TID 0000.0001) %MON trAdv_CFL_u_max              =   4.8857494669945E-09
(PID.TID 0000.0001) %MON trAdv_CFL_v_max              =   1.0037322201676E-08
(PID.TID 0000.0001) %MON trAdv_CFL_w_max              =   1.3246908863440E-14
(PID.TID 0000.0001) %MON advcfl_uvel_max              =   4.8733215295594E-09
(PID.TID 0000.0001) %MON advcfl_vvel_max              =   1.0055916149274E-08
(PID.TID 0000.0001) %MON advcfl_wvel_max              =   3.6813968240246E-14
(PID.TID 0000.0001) %MON advcfl_W_hf_max              =   0.0000000000000E+00
(PID.TID 0000.0001) %MON pe_b_mean                    =   6.6433082712143E-21
(PID.TID 0000.0001) %MON ke_max                       =   4.4076843520512E-17
(PID.TID 0000.0001) %MON ke_mean                      =   4.6842764352631E-18
(PID.TID 0000.0001) %MON ke_vol                       =   7.5645000000000E+15
(PID.TID 0000.0001) %MON vort_r_min                   =  -3.3876020652027E-13
(PID.TID 0000.0001) %MON vort_r_max                   =   3.1250912263946E-13
(PID.TID 0000.0001) %MON vort_a_mean                  =   8.2300000000000E-05
(PID.TID 0000.0001) %MON vort_a_sd                    =   7.1297555115573E-06
(PID.TID 0000.0001) %MON vort_p_mean                  =   8.3303658536586E-05
(PID.TID 0000.0001) %MON vort_p_sd                    =   1.7411470228875E-05
(PID.TID 0000.0001) %MON surfExpan_theta_mean         =   7.5564240887192E-27
(PID.TID 0000.0001) %MON surfExpan_salt_mean          =   1.1361774331915E-26
(PID.TID 0000.0001) // =======================================================
(PID.TID 0000.0001) // End MONITOR dynamic field statistics
(PID.TID 0000.0001) // =======================================================
 cg2d: Sum(rhs),rhsMax =  -4.80203286394744E-03  8.46496714206742E-10
 cg2d: Sum(rhs),rhsMax =  -4.81212528296243E-03  8.44721458274750E-10
 cg2d: Sum(rhs),rhsMax =  -4.82227319137256E-03  8.42943916457772E-10
 cg2d: Sum(rhs),rhsMax =  -4.83247489638085E-03  8.41164473229244E-10
 cg2d: Sum(rhs),rhsMax =  -4.84272859817769E-03  8.39383511713139E-10
 cg2d: Sum(rhs),rhsMax =  -4.85303248251466E-03  8.37601412567567E-10
 cg2d: Sum(rhs),rhsMax =  -4.86338471255623E-03  8.35818554530370E-10
 cg2d: Sum(rhs),rhsMax =  -4.87378341880084E-03  8.34035314162545E-10
 cg2d: Sum(rhs),rhsMax =  -4.88422672802424E-03  8.32252065749614E-10
 cg2d: Sum(rhs),rhsMax =  -4.89459248948762E-03  8.30489583356487E-10
 cg2d: Sum(rhs),rhsMax =  -4.90489239863870E-03  8.28745674557230E-10
 cg2d: Sum(rhs),rhsMax =  -4.91523015787708E-03  8.27002706033467E-10
 cg2d: Sum(rhs),rhsMax =  -4.92560384938332E-03  8.25261032222085E-10
 cg2d: Sum(rhs),rhsMax =  -4.93601154594691E-03  8.23521004899670E-10
 cg2d: Sum(rhs),rhsMax =  -4.94645129892083E-03  8.21782973094870E-10
 cg2d: Sum(rhs),rhsMax =  -4.95692114473255E-03  8.20047283002191E-10
(PID.TID 0000.0001)      cg2d_init_res =   2.20318990434233E-01
(PID.TID 0000.0001)      cg2d_iters(min,last) =      -1     545
(PID.TID 0000.0001)      cg2d_last_res =   9.78766525858535E-08
(PID.TID 0000.0001) // =======================================================
(PID.TID 0000.0001) // Begin MONITOR dynamic field statistics
(PID.TID 0000.0001) // =======================================================
(PID.TID 0000.0001) %MON time_tsnumber                =                  1920
(PID.TID 0000.0001) %MON time_secondsf                =   1.0368000000000E+07
(PID.TID 0000.0001) %MON dynstat_eta_max              =   7.5658853349594E-09
(PID.TID 0000.0001) %MON dynstat_eta_min              =  -5.5364656542610E-09
(PID.TID 0000.0001) %MON dynstat_eta_mean             =   3.9174027992167E-13
(PID.TID 0000.0001) %MON dynstat_eta_sd               =   2.5904514749519E-09
(PID.TID 0000.0001) %MON dynstat_eta_del2             =   3.9490932905818E-14
(PID.TID 0000.0001) %MON dynstat_uvel_max             =   4.1722418621928E-09
(PID.TID 0000.0001) %MON dynstat_uvel_min             =  -4.2923443245706E-09
(PID.TID 0000.0001) %MON dynstat_uvel_mean            =  -2.1361593987201E-13
(PID.TID 0000.0001) %MON dynstat_uvel_sd              =   1.4665293168076E-09
(PID.TID 0000.0001) %MON dynstat_uvel_del2            =   1.0539629953011E-13
(PID.TID 0000.0001) %MON dynstat_vvel_max             =   6.3325106086164E-09
(PID.TID 0000.0001) %MON dynstat_vvel_min             =  -9.5090269161013E-09
(PID.TID 0000.0001) %MON dynstat_vvel_mean            =   4.0058809563714E-14
(PID.TID 0000.0001) %MON dynstat_vvel_sd              =   2.6547676004725E-09
(PID.TID 0000.0001) %MON dynstat_vvel_del2            =   1.4678929277820E-13
(PID.TID 0000.0001) %MON dynstat_wvel_max             =   1.1745029991905E-14
(PID.TID 0000.0001) %MON dynstat_wvel_min             =  -1.7645761626328E-14
(PID.TID 0000.0001) %MON dynstat_wvel_mean            =  -2.3894027152238E-28
(PID.TID 0000.0001) %MON dynstat_wvel_sd              =   6.2793857811061E-15
(PID.TID 0000.0001) %MON dynstat_wvel_del2            =   4.6991605258831E-20
(PID.TID 0000.0001) %MON dynstat_theta_max            =   2.0000000000000E+01
(PID.TID 0000.0001) %MON dynstat_theta_min            =   2.0000000000000E+01
(PID.TID 0000.0001) %MON dynstat_theta_mean           =   2.0000000000000E+01
(PID.TID 0000.0001) %MON dynstat_theta_sd             =   0.0000000000000E+00
(PID.TID 0000.0001) %MON dynstat_theta_del2           =   0.0000000000000E+00
(PID.TID 0000.0001) %MON dynstat_salt_max             =   3.0000000000000E+01
(PID.TID 0000.0001) %MON dynstat_salt_min             =   3.0000000000000E+01
(PID.TID 0000.0001) %MON dynstat_salt_mean            =   3.0000000000000E+01
(PID.TID 0000.0001) %MON dynstat_salt_sd              =   0.0000000000000E+00
(PID.TID 0000.0001) %MON dynstat_salt_del2            =   0.0000000000000E+00
(PID.TID 0000.0001) %MON trAdv_CFL_u_max              =   4.6531217283186E-09
(PID.TID 0000.0001) %MON trAdv_CFL_v_max              =   1.0260966783120E-08
(PID.TID 0000.0001) %MON trAdv_CFL_w_max              =   1.2726625440296E-14
(PID.TID 0000.0001) %MON advcfl_uvel_max              =   4.6357318705362E-09
(PID.TID 0000.0001) %MON advcfl_vvel_max              =   1.0269749069389E-08
(PID.TID 0000.0001) %MON advcfl_wvel_max              =   3.8114845112869E-14
(PID.TID 0000.0001) %MON advcfl_W_hf_max              =   0.0000000000000E+00
(PID.TID 0000.0001) %MON pe_b_mean                    =   6.5829406565873E-21
(PID.TID 0000.0001) %MON ke_max                       =   4.5632348351932E-17
(PID.TID 0000.0001) %MON ke_mean                      =   4.5805535116235E-18
(PID.TID 0000.0001) %MON ke_vol                       =   7.5645000000000E+15
(PID.TID 0000.0001) %MON vort_r_min                   =  -3.2822307251907E-13
(PID.TID 0000.0001) %MON vort_r_max                   =   3.1420691811892E-13
(PID.TID 0000.0001) %MON vort_a_mean                  =   8.2300000000000E-05
(PID.TID 0000.0001) %MON vort_a_sd                    =   7.1297555115672E-06
(PID.TID 0000.0001) %MON vort_p_mean                  =   8.3303658536585E-05
(PID.TID 0000.0001) %MON vort_p_sd                    =   1.7411470228892E-05
(PID.TID 0000.0001) %MON surfExpan_theta_mean         =  -4.8472567556904E-27
(PID.TID 0000.0001) %MON surfExpan_salt_mean          =  -7.2474197062864E-27
(PID.TID 0000.0001) // =======================================================
(PID.TID 0000.0001) // End MONITOR dynamic field statistics
(PID.TID 0000.0001) // =======================================================
 cg2d: Sum(rhs),rhsMax =  -4.96741906061831E-03  8.18314277715741E-10
 cg2d: Sum(rhs),rhsMax =  -4.97794309285113E-03  8.16584297784407E-10
 cg2d: Sum(rhs),rhsMax =  -4.98849122363477E-03  8.14857680348759E-10
 cg2d: Sum(rhs),rhsMax =  -4.99906133814347E-03  8.13134759265896E-10
 cg2d: Sum(rhs),rhsMax =  -5.00965148167674E-03  8.11415865264535E-10
 cg2d: Sum(rhs),rhsMax =  -5.02025958784427E-03  8.09701326036576E-10
 cg2d: Sum(rhs),rhsMax =  -5.03088358405493E-03  8.07991465392775E-10
 cg2d: Sum(rhs),rhsMax =  -5.04152137698341E-03  8.06286603872912E-10
 cg2d: Sum(rhs),rhsMax =  -5.05217087381233E-03  8.04587058423290E-10
 cg2d: Sum(rhs),rhsMax =  -5.06282995713777E-03  8.02893142298950E-10
 cg2d: Sum(rhs),rhsMax =  -5.07349650007427E-03  8.01205165076715E-10
 cg2d: Sum(rhs),rhsMax =  -5.08416837099555E-03  7.99523432466650E-10
 cg2d: Sum(rhs),rhsMax =  -5.09484343335202E-03  7.97848246370962E-10
 cg2d: Sum(rhs),rhsMax =  -5.10551952343497E-03  7.96179904656300E-10
 cg2d: Sum(rhs),rhsMax =  -5.11619448649718E-03  7.94518701253703E-10
 cg2d: Sum(rhs),rhsMax =  -5.12686615295950E-03  7.92864925897641E-10
(PID.TID 0000.0001)      cg2d_init_res =   2.26705540769048E-01
(PID.TID 0000.0001)      cg2d_iters(min,last) =      -1     547
(PID.TID 0000.0001)      cg2d_last_res =   9.51971500217840E-08
(PID.TID 0000.0001) // =======================================================
(PID.TID 0000.0001) // Begin MONITOR dynamic field statistics
(PID.TID 0000.0001) // =======================================================
(PID.TID 0000.0001) %MON time_tsnumber                =                  1936
(PID.TID 0000.0001) %MON time_secondsf                =   1.0454400000000E+07
(PID.TID 0000.0001) %MON dynstat_eta_max              =   6.9692033212031E-09
(PID.TID 0000.0001) %MON dynstat_eta_min              =  -6.0608525495692E-09
(PID.TID 0000.0001) %MON dynstat_eta_mean             =   3.9174052640076E-13
(PID.TID 0000.0001) %MON dynstat_eta_sd               =   2.5839424524572E-09
(PID.TID 0000.0001) %MON dynstat_eta_del2             =   3.8749405690088E-14
(PID.TID 0000.0001) %MON dynstat_uvel_max             =   4.2212037146906E-09
(PID.TID 0000.0001) %MON dynstat_uvel_min             =  -4.0011746124581E-09
(PID.TID 0000.0001) %MON dynstat_uvel_mean            =  -1.7785051918545E-13
(PID.TID 0000.0001) %MON dynstat_uvel_sd              =   1.4391209057647E-09
(PID.TID 0000.0001) %MON dynstat_uvel_del2            =   1.0430390706276E-13
(PID.TID 0000.0001) %MON dynstat_vvel_max             =   6.1185797272218E-09
(PID.TID 0000.0001) %MON dynstat_vvel_min             =  -9.6109954890692E-09
(PID.TID 0000.0001) %MON dynstat_vvel_mean            =   4.1688833465026E-14
(PID.TID 0000.0001) %MON dynstat_vvel_sd              =   2.6319279970098E-09
(PID.TID 0000.0001) %MON dynstat_vvel_del2            =   1.4260265240592E-13
(PID.TID 0000.0001) %MON dynstat_wvel_max             =   1.1046252987867E-14
(PID.TID 0000.0001) %MON dynstat_wvel_min             =  -1.7943140800947E-14
(PID.TID 0000.0001) %MON dynstat_wvel_mean            =  -1.2228905424327E-28
(PID.TID 0000.0001) %MON dynstat_wvel_sd              =   6.2187558412391E-15
(PID.TID 0000.0001) %MON dynstat_wvel_del2            =   4.6719139814735E-20
(PID.TID 0000.0001) %MON dynstat_theta_max            =   2.0000000000000E+01
(PID.TID 0000.0001) %MON dynstat_theta_min            =   2.0000000000000E+01
(PID.TID 0000.0001) %MON dynstat_theta_mean           =   2.0000000000000E+01
(PID.TID 0000.0001) %MON dynstat_theta_sd             =   0.0000000000000E+00
(PID.TID 0000.0001) %MON dynstat_theta_del2           =   0.0000000000000E+00
(PID.TID 0000.0001) %MON dynstat_salt_max             =   3.0000000000000E+01
(PID.TID 0000.0001) %MON dynstat_salt_min             =   3.0000000000000E+01
(PID.TID 0000.0001) %MON dynstat_salt_mean            =   3.0000000000000E+01
(PID.TID 0000.0001) %MON dynstat_salt_sd              =   0.0000000000000E+00
(PID.TID 0000.0001) %MON dynstat_salt_del2            =   0.0000000000000E+00
(PID.TID 0000.0001) %MON trAdv_CFL_u_max              =   4.5582452816878E-09
(PID.TID 0000.0001) %MON trAdv_CFL_v_max              =   1.0376774023289E-08
(PID.TID 0000.0001) %MON trAdv_CFL_w_max              =   1.1981096241920E-14
(PID.TID 0000.0001) %MON advcfl_uvel_max              =   4.5589000118659E-09
(PID.TID 0000.0001) %MON advcfl_vvel_max              =   1.0379875128195E-08
(PID.TID 0000.0001) %MON advcfl_wvel_max              =   3.8757184130045E-14
(PID.TID 0000.0001) %MON advcfl_W_hf_max              =   0.0000000000000E+00
(PID.TID 0000.0001) %MON pe_b_mean                    =   6.5499003348005E-21
(PID.TID 0000.0001) %MON ke_max                       =   4.6370195029460E-17
(PID.TID 0000.0001) %MON ke_mean                      =   4.4807681485251E-18
(PID.TID 0000.0001) %MON ke_vol                       =   7.5645000000000E+15
(PID.TID 0000.0001) %MON vort_r_min                   =  -3.1770482029759E-13
(PID.TID 0000.0001) %MON vort_r_max                   =   3.1496915921155E-13
(PID.TID 0000.0001) %MON vort_a_mean                  =   8.2300000000001E-05
(PID.TID 0000.0001) %MON vort_a_sd                    =   7.1297555115485E-06
(PID.TID 0000.0001) %MON vort_p_mean                  =   8.3303658536586E-05
(PID.TID 0000.0001) %MON vort_p_sd                    =   1.7411470228892E-05
(PID.TID 0000.0001) %MON surfExpan_theta_mean         =  -2.4559795608653E-27
(PID.TID 0000.0001) %MON surfExpan_salt_mean          =  -3.6209857875705E-27
(PID.TID 0000.0001) // =======================================================
(PID.TID 0000.0001) // End MONITOR dynamic field statistics
(PID.TID 0000.0001) // =======================================================
 cg2d: Sum(rhs),rhsMax =  -5.13753233500856E-03  7.91218864258575E-10
 cg2d: Sum(rhs),rhsMax =  -5.14819086309166E-03  7.89580797659004E-10
 cg2d: Sum(rhs),rhsMax =  -5.15883954292835E-03  7.87951003228164E-10
 cg2d: Sum(rhs),rhsMax =  -5.16947619304399E-03  7.86329753605383E-10
 cg2d: Sum(rhs),rhsMax =  -5.18009861245283E-03  7.84717317106998E-10
 cg2d: Sum(rhs),rhsMax =  -5.19070461478540E-03  7.83113957426415E-10
 cg2d: Sum(rhs),rhsMax =  -5.20129200353017E-03  7.81519933805108E-10
 cg2d: Sum(rhs),rhsMax =  -5.21185857462026E-03  7.79935500736503E-10
 cg2d: Sum(rhs),rhsMax =  -5.22240213760963E-03  7.78360908135046E-10
 cg2d: Sum(rhs),rhsMax =  -5.23292050871290E-03  7.76796401049082E-10
 cg2d: Sum(rhs),rhsMax =  -5.24341148826671E-03  7.75242219823745E-10
 cg2d: Sum(rhs),rhsMax =  -5.25387287174982E-03  7.73698600068535E-10
 cg2d: Sum(rhs),rhsMax =  -5.26430251104415E-03  7.72165771730489E-10
 cg2d: Sum(rhs),rhsMax =  -5.27469823320280E-03  7.70643960716049E-10
 cg2d: Sum(rhs),rhsMax =  -5.28505786751180E-03  7.69133387410394E-10
 cg2d: Sum(rhs),rhsMax =  -5.29537926572011E-03  7.67634267222769E-10
(PID.TID 0000.0001)      cg2d_init_res =   2.32941310510645E-01
(PID.TID 0000.0001)      cg2d_iters(min,last) =      -1     548
(PID.TID 0000.0001)      cg2d_last_res =   9.46045449258190E-08
(PID.TID 0000.0001) // =======================================================
(PID.TID 0000.0001) // Begin MONITOR dynamic field statistics
(PID.TID 0000.0001) // =======================================================
(PID.TID 0000.0001) %MON time_tsnumber                =                  1952
(PID.TID 0000.0001) %MON time_secondsf                =   1.0540800000000E+07
(PID.TID 0000.0001) %MON dynstat_eta_max              =   6.2734889083439E-09
(PID.TID 0000.0001) %MON dynstat_eta_min              =  -6.6384607094062E-09
(PID.TID 0000.0001) %MON dynstat_eta_mean             =   3.9174073899913E-13
(PID.TID 0000.0001) %MON dynstat_eta_sd               =   2.5803509081815E-09
(PID.TID 0000.0001) %MON dynstat_eta_del2             =   3.8019053354948E-14
(PID.TID 0000.0001) %MON dynstat_uvel_max             =   4.1986184618977E-09
(PID.TID 0000.0001) %MON dynstat_uvel_min             =  -3.6533419025673E-09
(PID.TID 0000.0001) %MON dynstat_uvel_mean            =  -1.3140384496330E-13
(PID.TID 0000.0001) %MON dynstat_uvel_sd              =   1.4139160983590E-09
(PID.TID 0000.0001) %MON dynstat_uvel_del2            =   1.0347477739921E-13
(PID.TID 0000.0001) %MON dynstat_vvel_max             =   5.8539399387932E-09
(PID.TID 0000.0001) %MON dynstat_vvel_min             =  -9.6031993126367E-09
(PID.TID 0000.0001) %MON dynstat_vvel_mean            =   4.2244428821635E-14
(PID.TID 0000.0001) %MON dynstat_vvel_sd              =   2.6088439109755E-09
(PID.TID 0000.0001) %MON dynstat_vvel_del2            =   1.3871395528688E-13
(PID.TID 0000.0001) %MON dynstat_wvel_max             =   1.0204930185331E-14
(PID.TID 0000.0001) %MON dynstat_wvel_min             =  -1.7932117992725E-14
(PID.TID 0000.0001) %MON dynstat_wvel_mean            =  -5.2631480448981E-28
(PID.TID 0000.0001) %MON dynstat_wvel_sd              =   6.1581608882624E-15
(PID.TID 0000.0001) %MON dynstat_wvel_del2            =   4.6489601597141E-20
(PID.TID 0000.0001) %MON dynstat_theta_max            =   2.0000000000000E+01
(PID.TID 0000.0001) %MON dynstat_theta_min            =   2.0000000000000E+01
(PID.TID 0000.0001) %MON dynstat_theta_mean           =   2.0000000000000E+01
(PID.TID 0000.0001) %MON dynstat_theta_sd             =   0.0000000000000E+00
(PID.TID 0000.0001) %MON dynstat_theta_del2           =   0.0000000000000E+00
(PID.TID 0000.0001) %MON dynstat_salt_max             =   3.0000000000000E+01
(PID.TID 0000.0001) %MON dynstat_salt_min             =   3.0000000000000E+01
(PID.TID 0000.0001) %MON dynstat_salt_mean            =   3.0000000000000E+01
(PID.TID 0000.0001) %MON dynstat_salt_sd              =   0.0000000000000E+00
(PID.TID 0000.0001) %MON dynstat_salt_del2            =   0.0000000000000E+00
(PID.TID 0000.0001) %MON trAdv_CFL_u_max              =   4.5385082085672E-09
(PID.TID 0000.0001) %MON trAdv_CFL_v_max              =   1.0374515366205E-08
(PID.TID 0000.0001) %MON trAdv_CFL_w_max              =   1.1081855528428E-14
(PID.TID 0000.0001) %MON advcfl_uvel_max              =   4.5345079388496E-09
(PID.TID 0000.0001) %MON advcfl_vvel_max              =   1.0371455257648E-08
(PID.TID 0000.0001) %MON advcfl_wvel_max              =   3.8733374864286E-14
(PID.TID 0000.0001) %MON advcfl_W_hf_max              =   0.0000000000000E+00
(PID.TID 0000.0001) %MON pe_b_mean                    =   6.5317049545206E-21
(PID.TID 0000.0001) %MON ke_max                       =   4.6150319307899E-17
(PID.TID 0000.0001) %MON ke_mean                      =   4.3847158526437E-18
(PID.TID 0000.0001) %MON ke_vol                       =   7.5645000000000E+15
(PID.TID 0000.0001) %MON vort_r_min                   =  -3.0769039587482E-13
(PID.TID 0000.0001) %MON vort_r_max                   =   3.1360925514671E-13
(PID.TID 0000.0001) %MON vort_a_mean                  =   8.2300000000000E-05
(PID.TID 0000.0001) %MON vort_a_sd                    =   7.1297555115652E-06
(PID.TID 0000.0001) %MON vort_p_mean                  =   8.3303658536585E-05
(PID.TID 0000.0001) %MON vort_p_sd                    =   1.7411470228905E-05
(PID.TID 0000.0001) %MON surfExpan_theta_mean         =  -1.0637402017908E-26
(PID.TID 0000.0001) %MON surfExpan_salt_mean          =  -1.5948229312820E-26
(PID.TID 0000.0001) // =======================================================
(PID.TID 0000.0001) // End MONITOR dynamic field statistics
(PID.TID 0000.0001) // =======================================================
 cg2d: Sum(rhs),rhsMax =  -5.30566028566717E-03  7.66146810388568E-10
 cg2d: Sum(rhs),rhsMax =  -5.31589879230120E-03  7.64671221957934E-10
 cg2d: Sum(rhs),rhsMax =  -5.32609267070327E-03  7.63207701737919E-10
 cg2d: Sum(rhs),rhsMax =  -5.33623981431260E-03  7.61756444247823E-10
 cg2d: Sum(rhs),rhsMax =  -5.34633813986300E-03  7.60317638671586E-10
 cg2d: Sum(rhs),rhsMax =  -5.35638556496277E-03  7.58891468813261E-10
 cg2d: Sum(rhs),rhsMax =  -5.36638004528641E-03  7.57478113053009E-10
 cg2d: Sum(rhs),rhsMax =  -5.37631953800952E-03  7.56077744304865E-10
 cg2d: Sum(rhs),rhsMax =  -5.38620203514400E-03  7.54690529975760E-10
 cg2d: Sum(rhs),rhsMax =  -5.39602554327670E-03  7.53316631925836E-10
 cg2d: Sum(rhs),rhsMax =  -5.40578809503439E-03  7.51956206430233E-10
 cg2d: Sum(rhs),rhsMax =  -5.41548774180565E-03  7.50609404142303E-10
 cg2d: Sum(rhs),rhsMax =  -5.42512256693468E-03  7.49276370058107E-10
 cg2d: Sum(rhs),rhsMax =  -5.43469068065445E-03  7.47957243482374E-10
 cg2d: Sum(rhs),rhsMax =  -5.44419021633817E-03  7.46652157995884E-10
 cg2d: Sum(rhs),rhsMax =  -5.45361934782779E-03  7.45361241424211E-10
(PID.TID 0000.0001)      cg2d_init_res =   2.38594991863629E-01
(PID.TID 0000.0001)      cg2d_iters(min,last) =      -1     548
(PID.TID 0000.0001)      cg2d_last_res =   9.47725329630590E-08
(PID.TID 0000.0001) // =======================================================
(PID.TID 0000.0001) // Begin MONITOR dynamic field statistics
(PID.TID 0000.0001) // =======================================================
(PID.TID 0000.0001) %MON time_tsnumber                =                  1968
(PID.TID 0000.0001) %MON time_secondsf                =   1.0627200000000E+07
(PID.TID 0000.0001) %MON dynstat_eta_max              =   5.8790663827246E-09
(PID.TID 0000.0001) %MON dynstat_eta_min              =  -7.1797713053099E-09
(PID.TID 0000.0001) %MON dynstat_eta_mean             =   3.9174092221803E-13
(PID.TID 0000.0001) %MON dynstat_eta_sd               =   2.5770835865078E-09
(PID.TID 0000.0001) %MON dynstat_eta_del2             =   3.7307866344991E-14
(PID.TID 0000.0001) %MON dynstat_uvel_max             =   4.5094302295752E-09
(PID.TID 0000.0001) %MON dynstat_uvel_min             =  -3.2581267416166E-09
(PID.TID 0000.0001) %MON dynstat_uvel_mean            =  -7.7016400326234E-14
(PID.TID 0000.0001) %MON dynstat_uvel_sd              =   1.3933397860284E-09
(PID.TID 0000.0001) %MON dynstat_uvel_del2            =   1.0285061242752E-13
(PID.TID 0000.0001) %MON dynstat_vvel_max             =   5.7263005635152E-09
(PID.TID 0000.0001) %MON dynstat_vvel_min             =  -9.4869846772735E-09
(PID.TID 0000.0001) %MON dynstat_vvel_mean            =   4.1596800557478E-14
(PID.TID 0000.0001) %MON dynstat_vvel_sd              =   2.5841767986920E-09
(PID.TID 0000.0001) %MON dynstat_vvel_del2            =   1.3521268225170E-13
(PID.TID 0000.0001) %MON dynstat_wvel_max             =   9.2718290622962E-15
(PID.TID 0000.0001) %MON dynstat_wvel_min             =  -1.7606308085893E-14
(PID.TID 0000.0001) %MON dynstat_wvel_mean            =   3.6349389581194E-28
(PID.TID 0000.0001) %MON dynstat_wvel_sd              =   6.1053724098005E-15
(PID.TID 0000.0001) %MON dynstat_wvel_del2            =   4.6251305465360E-20
(PID.TID 0000.0001) %MON dynstat_theta_max            =   2.0000000000000E+01
(PID.TID 0000.0001) %MON dynstat_theta_min            =   2.0000000000000E+01
(PID.TID 0000.0001) %MON dynstat_theta_mean           =   2.0000000000000E+01
(PID.TID 0000.0001) %MON dynstat_theta_sd             =   0.0000000000000E+00
(PID.TID 0000.0001) %MON dynstat_theta_del2           =   0.0000000000000E+00
(PID.TID 0000.0001) %MON dynstat_salt_max             =   3.0000000000000E+01
(PID.TID 0000.0001) %MON dynstat_salt_min             =   3.0000000000000E+01
(PID.TID 0000.0001) %MON dynstat_salt_mean            =   3.0000000000000E+01
(PID.TID 0000.0001) %MON dynstat_salt_sd              =   0.0000000000000E+00
(PID.TID 0000.0001) %MON dynstat_salt_del2            =   0.0000000000000E+00
(PID.TID 0000.0001) %MON trAdv_CFL_u_max              =   4.8422121341050E-09
(PID.TID 0000.0001) %MON trAdv_CFL_v_max              =   1.0255193638461E-08
(PID.TID 0000.0001) %MON trAdv_CFL_w_max              =   1.0078748297948E-14
(PID.TID 0000.0001) %MON advcfl_uvel_max              =   4.8701846479412E-09
(PID.TID 0000.0001) %MON advcfl_vvel_max              =   1.0245943451455E-08
(PID.TID 0000.0001) %MON advcfl_wvel_max              =   3.8029625465530E-14
(PID.TID 0000.0001) %MON advcfl_W_hf_max              =   0.0000000000000E+00
(PID.TID 0000.0001) %MON pe_b_mean                    =   6.5151741259682E-21
(PID.TID 0000.0001) %MON ke_max                       =   4.4985982906525E-17
(PID.TID 0000.0001) %MON ke_mean                      =   4.2921637113881E-18
(PID.TID 0000.0001) %MON ke_vol                       =   7.5645000000000E+15
(PID.TID 0000.0001) %MON vort_r_min                   =  -2.9852742193064E-13
(PID.TID 0000.0001) %MON vort_r_max                   =   3.0912773245131E-13
(PID.TID 0000.0001) %MON vort_a_mean                  =   8.2300000000001E-05
(PID.TID 0000.0001) %MON vort_a_sd                    =   7.1297555115456E-06
(PID.TID 0000.0001) %MON vort_p_mean                  =   8.3303658536587E-05
(PID.TID 0000.0001) %MON vort_p_sd                    =   1.7411470228900E-05
(PID.TID 0000.0001) %MON surfExpan_theta_mean         =   7.1558601980160E-27
(PID.TID 0000.0001) %MON surfExpan_salt_mean          =   1.0728288977876E-26
(PID.TID 0000.0001) // =======================================================
(PID.TID 0000.0001) // End MONITOR dynamic field statistics
(PID.TID 0000.0001) // =======================================================
 cg2d: Sum(rhs),rhsMax =  -5.46297627939198E-03  7.44084615807937E-10
 cg2d: Sum(rhs),rhsMax =  -5.47225923751617E-03  7.42822397374305E-10
 cg2d: Sum(rhs),rhsMax =  -5.48146647829925E-03  7.41574696510239E-10
 cg2d: Sum(rhs),rhsMax =  -5.49059632380954E-03  7.40341617501212E-10
 cg2d: Sum(rhs),rhsMax =  -5.49964710039047E-03  7.39123259535011E-10
 cg2d: Sum(rhs),rhsMax =  -5.50861717419233E-03  7.37919714948887E-10
 cg2d: Sum(rhs),rhsMax =  -5.51750497449371E-03  7.36731070621867E-10
 cg2d: Sum(rhs),rhsMax =  -5.52630893000908E-03  7.35557407336873E-10
 cg2d: Sum(rhs),rhsMax =  -5.53502755484140E-03  7.34398799980261E-10
 cg2d: Sum(rhs),rhsMax =  -5.54365937360519E-03  7.33255317400326E-10
 cg2d: Sum(rhs),rhsMax =  -5.55220298198045E-03  7.32127022485577E-10
 cg2d: Sum(rhs),rhsMax =  -5.56065699617152E-03  7.31013972072597E-10
 cg2d: Sum(rhs),rhsMax =  -5.56902009313097E-03  7.29916216993809E-10
 cg2d: Sum(rhs),rhsMax =  -5.57729100295119E-03  7.28833802023689E-10
 cg2d: Sum(rhs),rhsMax =  -5.58546847903796E-03  7.27766765894921E-10
 cg2d: Sum(rhs),rhsMax =  -5.59355133505196E-03  7.26715141283766E-10
(PID.TID 0000.0001)      cg2d_init_res =   2.43269766289796E-01
(PID.TID 0000.0001)      cg2d_iters(min,last) =      -1     547
(PID.TID 0000.0001)      cg2d_last_res =   9.31451715949497E-08
(PID.TID 0000.0001) // =======================================================
(PID.TID 0000.0001) // Begin MONITOR dynamic field statistics
(PID.TID 0000.0001) // =======================================================
(PID.TID 0000.0001) %MON time_tsnumber                =                  1984
(PID.TID 0000.0001) %MON time_secondsf                =   1.0713600000000E+07
(PID.TID 0000.0001) %MON dynstat_eta_max              =   5.9269792021388E-09
(PID.TID 0000.0001) %MON dynstat_eta_min              =  -7.6272713754659E-09
(PID.TID 0000.0001) %MON dynstat_eta_mean             =   3.9174111107428E-13
(PID.TID 0000.0001) %MON dynstat_eta_sd               =   2.5719326770660E-09
(PID.TID 0000.0001) %MON dynstat_eta_del2             =   3.6623604606264E-14
(PID.TID 0000.0001) %MON dynstat_uvel_max             =   4.8966452884346E-09
(PID.TID 0000.0001) %MON dynstat_uvel_min             =  -3.1604123546989E-09
(PID.TID 0000.0001) %MON dynstat_uvel_mean            =  -1.7865212759916E-14
(PID.TID 0000.0001) %MON dynstat_uvel_sd              =   1.3791474608660E-09
(PID.TID 0000.0001) %MON dynstat_uvel_del2            =   1.0227760029019E-13
(PID.TID 0000.0001) %MON dynstat_vvel_max             =   5.6452524170157E-09
(PID.TID 0000.0001) %MON dynstat_vvel_min             =  -9.2687736022326E-09
(PID.TID 0000.0001) %MON dynstat_vvel_mean            =   3.9670912564665E-14
(PID.TID 0000.0001) %MON dynstat_vvel_sd              =   2.5569468405316E-09
(PID.TID 0000.0001) %MON dynstat_vvel_del2            =   1.3217778342615E-13
(PID.TID 0000.0001) %MON dynstat_wvel_max             =   8.2751072633114E-15
(PID.TID 0000.0001) %MON dynstat_wvel_min             =  -1.6979700983022E-14
(PID.TID 0000.0001) %MON dynstat_wvel_mean            =  -7.0551681909089E-28
(PID.TID 0000.0001) %MON dynstat_wvel_sd              =   6.0667596800382E-15
(PID.TID 0000.0001) %MON dynstat_wvel_del2            =   4.5990169470404E-20
(PID.TID 0000.0001) %MON dynstat_theta_max            =   2.0000000000000E+01
(PID.TID 0000.0001) %MON dynstat_theta_min            =   2.0000000000000E+01
(PID.TID 0000.0001) %MON dynstat_theta_mean           =   2.0000000000000E+01
(PID.TID 0000.0001) %MON dynstat_theta_sd             =   0.0000000000000E+00
(PID.TID 0000.0001) %MON dynstat_theta_del2           =   0.0000000000000E+00
(PID.TID 0000.0001) %MON dynstat_salt_max             =   3.0000000000000E+01
(PID.TID 0000.0001) %MON dynstat_salt_min             =   3.0000000000000E+01
(PID.TID 0000.0001) %MON dynstat_salt_mean            =   3.0000000000000E+01
(PID.TID 0000.0001) %MON dynstat_salt_sd              =   0.0000000000000E+00
(PID.TID 0000.0001) %MON dynstat_salt_del2            =   0.0000000000000E+00
(PID.TID 0000.0001) %MON trAdv_CFL_u_max              =   5.2641977222392E-09
(PID.TID 0000.0001) %MON trAdv_CFL_v_max              =   1.0029453989006E-08
(PID.TID 0000.0001) %MON trAdv_CFL_w_max              =   9.0064303081450E-15
(PID.TID 0000.0001) %MON advcfl_uvel_max              =   5.2883769115094E-09
(PID.TID 0000.0001) %MON advcfl_vvel_max              =   1.0010275490411E-08
(PID.TID 0000.0001) %MON advcfl_wvel_max              =   3.6676154123327E-14
(PID.TID 0000.0001) %MON advcfl_W_hf_max              =   0.0000000000000E+00
(PID.TID 0000.0001) %MON pe_b_mean                    =   6.4891559296931E-21
(PID.TID 0000.0001) %MON ke_max                       =   4.2984671710932E-17
(PID.TID 0000.0001) %MON ke_mean                      =   4.2028579109200E-18
(PID.TID 0000.0001) %MON ke_vol                       =   7.5645000000000E+15
(PID.TID 0000.0001) %MON vort_r_min                   =  -2.9054782817886E-13
(PID.TID 0000.0001) %MON vort_r_max                   =   3.0077449678394E-13
(PID.TID 0000.0001) %MON vort_a_mean                  =   8.2300000000000E-05
(PID.TID 0000.0001) %MON vort_a_sd                    =   7.1297555115525E-06
(PID.TID 0000.0001) %MON vort_p_mean                  =   8.3303658536586E-05
(PID.TID 0000.0001) %MON vort_p_sd                    =   1.7411470228907E-05
(PID.TID 0000.0001) %MON surfExpan_theta_mean         =  -1.4188610604095E-26
(PID.TID 0000.0001) %MON surfExpan_salt_mean          =  -2.1316936212682E-26
(PID.TID 0000.0001) // =======================================================
(PID.TID 0000.0001) // End MONITOR dynamic field statistics
(PID.TID 0000.0001) // =======================================================
 cg2d: Sum(rhs),rhsMax =  -5.60153844871023E-03  7.25678954790930E-10
 cg2d: Sum(rhs),rhsMax =  -5.60942874242704E-03  7.24658226968660E-10
 cg2d: Sum(rhs),rhsMax =  -5.61722118381147E-03  7.23652972266463E-10
 cg2d: Sum(rhs),rhsMax =  -5.62491485819053E-03  7.22663199367936E-10
 cg2d: Sum(rhs),rhsMax =  -5.63250878524494E-03  7.21688910289861E-10
 cg2d: Sum(rhs),rhsMax =  -5.64000210030894E-03  7.20730101100540E-10
 cg2d: Sum(rhs),rhsMax =  -5.64739400090935E-03  7.19786762194750E-10
 cg2d: Sum(rhs),rhsMax =  -5.65468373480394E-03  7.18858877635939E-10
 cg2d: Sum(rhs),rhsMax =  -5.66187060640595E-03  7.17946425465038E-10
 cg2d: Sum(rhs),rhsMax =  -5.66895397091218E-03  7.17049377668750E-10
 cg2d: Sum(rhs),rhsMax =  -5.67593327011302E-03  7.16167700185819E-10
 cg2d: Sum(rhs),rhsMax =  -5.68280797170143E-03  7.15301352917404E-10
 cg2d: Sum(rhs),rhsMax =  -5.68957762291363E-03  7.14450289738383E-10
 cg2d: Sum(rhs),rhsMax =  -5.69624183616041E-03  7.13614458510434E-10
 cg2d: Sum(rhs),rhsMax =  -5.70280027782512E-03  7.12793801096190E-10
 cg2d: Sum(rhs),rhsMax =  -5.70925273397146E-03  7.11988253727605E-10
(PID.TID 0000.0001)      cg2d_init_res =   2.46659646730251E-01
(PID.TID 0000.0001)      cg2d_iters(min,last) =      -1     541
(PID.TID 0000.0001)      cg2d_last_res =   9.90553702376822E-08
(PID.TID 0000.0001) // =======================================================
(PID.TID 0000.0001) // Begin MONITOR dynamic field statistics
(PID.TID 0000.0001) // =======================================================
(PID.TID 0000.0001) %MON time_tsnumber                =                  2000
(PID.TID 0000.0001) %MON time_secondsf                =   1.0800000000000E+07
(PID.TID 0000.0001) %MON dynstat_eta_max              =   5.8638193697513E-09
(PID.TID 0000.0001) %MON dynstat_eta_min              =  -7.9648957201072E-09
(PID.TID 0000.0001) %MON dynstat_eta_mean             =   3.9174135301446E-13
(PID.TID 0000.0001) %MON dynstat_eta_sd               =   2.5635013202160E-09
(PID.TID 0000.0001) %MON dynstat_eta_del2             =   3.5973048060996E-14
(PID.TID 0000.0001) %MON dynstat_uvel_max             =   5.2212148992066E-09
(PID.TID 0000.0001) %MON dynstat_uvel_min             =  -3.3749920012089E-09
(PID.TID 0000.0001) %MON dynstat_uvel_mean            =   4.2616818934982E-14
(PID.TID 0000.0001) %MON dynstat_uvel_sd              =   1.3717908029427E-09
(PID.TID 0000.0001) %MON dynstat_uvel_del2            =   1.0154825875744E-13
(PID.TID 0000.0001) %MON dynstat_vvel_max             =   5.4787813993889E-09
(PID.TID 0000.0001) %MON dynstat_vvel_min             =  -8.9496473397480E-09
(PID.TID 0000.0001) %MON dynstat_vvel_mean            =   3.6451225585909E-14
(PID.TID 0000.0001) %MON dynstat_vvel_sd              =   2.5268283219964E-09
(PID.TID 0000.0001) %MON dynstat_vvel_del2            =   1.2965200348149E-13
(PID.TID 0000.0001) %MON dynstat_wvel_max             =   9.4876440742686E-15
(PID.TID 0000.0001) %MON dynstat_wvel_min             =  -1.6061570752290E-14
(PID.TID 0000.0001) %MON dynstat_wvel_mean            =  -1.1551747389691E-28
(PID.TID 0000.0001) %MON dynstat_wvel_sd              =   6.0459283750174E-15
(PID.TID 0000.0001) %MON dynstat_wvel_del2            =   4.5739201575100E-20
(PID.TID 0000.0001) %MON dynstat_theta_max            =   2.0000000000000E+01
(PID.TID 0000.0001) %MON dynstat_theta_min            =   2.0000000000000E+01
(PID.TID 0000.0001) %MON dynstat_theta_mean           =   2.0000000000000E+01
(PID.TID 0000.0001) %MON dynstat_theta_sd             =   0.0000000000000E+00
(PID.TID 0000.0001) %MON dynstat_theta_del2           =   0.0000000000000E+00
(PID.TID 0000.0001) %MON dynstat_salt_max             =   3.0000000000000E+01
(PID.TID 0000.0001) %MON dynstat_salt_min             =   3.0000000000000E+01
(PID.TID 0000.0001) %MON dynstat_salt_mean            =   3.0000000000000E+01
(PID.TID 0000.0001) %MON dynstat_salt_sd              =   0.0000000000000E+00
(PID.TID 0000.0001) %MON dynstat_salt_del2            =   0.0000000000000E+00
(PID.TID 0000.0001) %MON trAdv_CFL_u_max              =   5.6195950427209E-09
(PID.TID 0000.0001) %MON trAdv_CFL_v_max              =   9.6900797265736E-09
(PID.TID 0000.0001) %MON trAdv_CFL_w_max              =   1.0146652723830E-14
(PID.TID 0000.0001) %MON advcfl_uvel_max              =   5.6389120911431E-09
(PID.TID 0000.0001) %MON advcfl_vvel_max              =   9.6656191269279E-09
(PID.TID 0000.0001) %MON advcfl_wvel_max              =   3.4692992824947E-14
(PID.TID 0000.0001) %MON advcfl_W_hf_max              =   0.0000000000000E+00
(PID.TID 0000.0001) %MON pe_b_mean                    =   6.4466799279385E-21
(PID.TID 0000.0001) %MON ke_max                       =   4.0224226704444E-17
(PID.TID 0000.0001) %MON ke_mean                      =   4.1165335119134E-18
(PID.TID 0000.0001) %MON ke_vol                       =   7.5645000000000E+15
(PID.TID 0000.0001) %MON vort_r_min                   =  -2.8395017704527E-13
(PID.TID 0000.0001) %MON vort_r_max                   =   2.8817324302243E-13
(PID.TID 0000.0001) %MON vort_a_mean                  =   8.2300000000001E-05
(PID.TID 0000.0001) %MON vort_a_sd                    =   7.1297555115508E-06
(PID.TID 0000.0001) %MON vort_p_mean                  =   8.3303658536586E-05
(PID.TID 0000.0001) %MON vort_p_sd                    =   1.7411470228915E-05
(PID.TID 0000.0001) %MON surfExpan_theta_mean         =  -2.3748093492344E-27
(PID.TID 0000.0001) %MON surfExpan_salt_mean          =  -3.4845059313214E-27
(PID.TID 0000.0001) // =======================================================
(PID.TID 0000.0001) // End MONITOR dynamic field statistics
(PID.TID 0000.0001) // =======================================================
 cg2d: Sum(rhs),rhsMax =  -5.71559893214647E-03  7.11197745845948E-10
 cg2d: Sum(rhs),rhsMax =  -5.72183873705173E-03  7.10422201332001E-10
 cg2d: Sum(rhs),rhsMax =  -5.72797205154859E-03  7.09661538478202E-10
 cg2d: Sum(rhs),rhsMax =  -5.73399886362678E-03  7.08915669332219E-10
 cg2d: Sum(rhs),rhsMax =  -5.73991922329571E-03  7.08184500196351E-10
 cg2d: Sum(rhs),rhsMax =  -5.74573323509502E-03  7.07467931408385E-10
 cg2d: Sum(rhs),rhsMax =  -5.75144107773707E-03  7.06765857576671E-10
 cg2d: Sum(rhs),rhsMax =  -5.75704299017391E-03  7.06078167406620E-10
 cg2d: Sum(rhs),rhsMax =  -5.76253930181009E-03  7.05404743478301E-10
 cg2d: Sum(rhs),rhsMax =  -5.76793033607511E-03  7.04745464080307E-10
 cg2d: Sum(rhs),rhsMax =  -5.77321654607741E-03  7.04100199906441E-10
 cg2d: Sum(rhs),rhsMax =  -5.77839842046118E-03  7.03468816988964E-10
 cg2d: Sum(rhs),rhsMax =  -5.78347653397680E-03  7.02851175466934E-10
 cg2d: Sum(rhs),rhsMax =  -5.78845150700693E-03  7.02247129906331E-10
 cg2d: Sum(rhs),rhsMax =  -5.79332402704022E-03  7.01656529297313E-10
 cg2d: Sum(rhs),rhsMax =  -5.79809485233932E-03  7.01079217091450E-10
(PID.TID 0000.0001)      cg2d_init_res =   2.48607753708108E-01
(PID.TID 0000.0001)      cg2d_iters(min,last) =      -1     540
(PID.TID 0000.0001)      cg2d_last_res =   9.08845017617950E-08
(PID.TID 0000.0001) // =======================================================
(PID.TID 0000.0001) // Begin MONITOR dynamic field statistics
(PID.TID 0000.0001) // =======================================================
(PID.TID 0000.0001) %MON time_tsnumber                =                  2016
(PID.TID 0000.0001) %MON time_secondsf                =   1.0886400000000E+07
(PID.TID 0000.0001) %MON dynstat_eta_max              =   5.7018848868579E-09
(PID.TID 0000.0001) %MON dynstat_eta_min              =  -8.1795929364982E-09
(PID.TID 0000.0001) %MON dynstat_eta_mean             =   3.9174163158806E-13
(PID.TID 0000.0001) %MON dynstat_eta_sd               =   2.5514330129547E-09
(PID.TID 0000.0001) %MON dynstat_eta_del2             =   3.5361199978858E-14
(PID.TID 0000.0001) %MON dynstat_uvel_max             =   5.4692912050043E-09
(PID.TID 0000.0001) %MON dynstat_uvel_min             =  -3.6003775407211E-09
(PID.TID 0000.0001) %MON dynstat_uvel_mean            =   1.0093443354320E-13
(PID.TID 0000.0001) %MON dynstat_uvel_sd              =   1.3701258010061E-09
(PID.TID 0000.0001) %MON dynstat_uvel_del2            =   1.0045638909274E-13
(PID.TID 0000.0001) %MON dynstat_vvel_max             =   5.8547367873519E-09
(PID.TID 0000.0001) %MON dynstat_vvel_min             =  -8.5334892638192E-09
(PID.TID 0000.0001) %MON dynstat_vvel_mean            =   3.1984288669187E-14
(PID.TID 0000.0001) %MON dynstat_vvel_sd              =   2.4942995252987E-09
(PID.TID 0000.0001) %MON dynstat_vvel_del2            =   1.2761684895098E-13
(PID.TID 0000.0001) %MON dynstat_wvel_max             =   1.0954532704277E-14
(PID.TID 0000.0001) %MON dynstat_wvel_min             =  -1.4878063757662E-14
(PID.TID 0000.0001) %MON dynstat_wvel_mean            =   5.3582743339422E-28
(PID.TID 0000.0001) %MON dynstat_wvel_sd              =   6.0430038399612E-15
(PID.TID 0000.0001) %MON dynstat_wvel_del2            =   4.5427918896202E-20
(PID.TID 0000.0001) %MON dynstat_theta_max            =   2.0000000000000E+01
(PID.TID 0000.0001) %MON dynstat_theta_min            =   2.0000000000000E+01
(PID.TID 0000.0001) %MON dynstat_theta_mean           =   2.0000000000000E+01
(PID.TID 0000.0001) %MON dynstat_theta_sd             =   0.0000000000000E+00
(PID.TID 0000.0001) %MON dynstat_theta_del2           =   0.0000000000000E+00
(PID.TID 0000.0001) %MON dynstat_salt_max             =   3.0000000000000E+01
(PID.TID 0000.0001) %MON dynstat_salt_min             =   3.0000000000000E+01
(PID.TID 0000.0001) %MON dynstat_salt_mean            =   3.0000000000000E+01
(PID.TID 0000.0001) %MON dynstat_salt_sd              =   0.0000000000000E+00
(PID.TID 0000.0001) %MON dynstat_salt_del2            =   0.0000000000000E+00
(PID.TID 0000.0001) %MON trAdv_CFL_u_max              =   5.8933007251900E-09
(PID.TID 0000.0001) %MON trAdv_CFL_v_max              =   9.2452050437214E-09
(PID.TID 0000.0001) %MON trAdv_CFL_w_max              =   1.1735221484166E-14
(PID.TID 0000.0001) %MON advcfl_uvel_max              =   5.9068345014047E-09
(PID.TID 0000.0001) %MON advcfl_vvel_max              =   9.2161684049248E-09
(PID.TID 0000.0001) %MON advcfl_wvel_max              =   3.2136617716549E-14
(PID.TID 0000.0001) %MON advcfl_W_hf_max              =   0.0000000000000E+00
(PID.TID 0000.0001) %MON pe_b_mean                    =   6.3861241721682E-21
(PID.TID 0000.0001) %MON ke_max                       =   3.6779090593971E-17
(PID.TID 0000.0001) %MON ke_mean                      =   4.0329264973704E-18
(PID.TID 0000.0001) %MON ke_vol                       =   7.5645000000000E+15
(PID.TID 0000.0001) %MON vort_r_min                   =  -2.7990884392635E-13
(PID.TID 0000.0001) %MON vort_r_max                   =   2.7127011501457E-13
(PID.TID 0000.0001) %MON vort_a_mean                  =   8.2299999999999E-05
(PID.TID 0000.0001) %MON vort_a_sd                    =   7.1297555115632E-06
(PID.TID 0000.0001) %MON vort_p_mean                  =   8.3303658536585E-05
(PID.TID 0000.0001) %MON vort_p_sd                    =   1.7411470228932E-05
(PID.TID 0000.0001) %MON surfExpan_theta_mean         =   1.0670015081860E-26
(PID.TID 0000.0001) %MON surfExpan_salt_mean          =   1.5983512274562E-26
(PID.TID 0000.0001) // =======================================================
(PID.TID 0000.0001) // End MONITOR dynamic field statistics
(PID.TID 0000.0001) // =======================================================
 cg2d: Sum(rhs),rhsMax =  -5.80276480327428E-03  7.00515031241245E-10
 cg2d: Sum(rhs),rhsMax =  -5.80733475684627E-03  6.99963804240912E-10
 cg2d: Sum(rhs),rhsMax =  -5.81180566141041E-03  6.99425363169074E-10
 cg2d: Sum(rhs),rhsMax =  -5.81617853202593E-03  6.98899529732518E-10
 cg2d: Sum(rhs),rhsMax =  -5.82045444191445E-03  6.98386120310984E-10
 cg2d: Sum(rhs),rhsMax =  -5.82463451047492E-03  6.97884946003322E-10
 cg2d: Sum(rhs),rhsMax =  -5.82871994642464E-03  6.97395812675011E-10
 cg2d: Sum(rhs),rhsMax =  -5.83271200949728E-03  6.96918521006789E-10
 cg2d: Sum(rhs),rhsMax =  -5.83661202810182E-03  6.96452866353831E-10
 cg2d: Sum(rhs),rhsMax =  -5.84042136118580E-03  6.95998639689411E-10
 cg2d: Sum(rhs),rhsMax =  -5.84414145277123E-03  6.95555626033620E-10
 cg2d: Sum(rhs),rhsMax =  -5.84777379168675E-03  6.95123605954973E-10
 cg2d: Sum(rhs),rhsMax =  -5.85131994228401E-03  6.94702354937998E-10
 cg2d: Sum(rhs),rhsMax =  -5.85478150842386E-03  6.94291643702902E-10
 cg2d: Sum(rhs),rhsMax =  -5.85816015955320E-03  6.93891238045340E-10
 cg2d: Sum(rhs),rhsMax =  -5.86145761968869E-03  6.93500899133252E-10
(PID.TID 0000.0001)      cg2d_init_res =   2.49151997146063E-01
(PID.TID 0000.0001)      cg2d_iters(min,last) =      -1     539
(PID.TID 0000.0001)      cg2d_last_res =   9.18274596564008E-08
(PID.TID 0000.0001) // =======================================================
(PID.TID 0000.0001) // Begin MONITOR dynamic field statistics
(PID.TID 0000.0001) // =======================================================
(PID.TID 0000.0001) %MON time_tsnumber                =                  2032
(PID.TID 0000.0001) %MON time_secondsf                =   1.0972800000000E+07
(PID.TID 0000.0001) %MON dynstat_eta_max              =   5.4565597567633E-09
(PID.TID 0000.0001) %MON dynstat_eta_min              =  -8.2612535477680E-09
(PID.TID 0000.0001) %MON dynstat_eta_mean             =   3.9174185149685E-13
(PID.TID 0000.0001) %MON dynstat_eta_sd               =   2.5364238231206E-09
(PID.TID 0000.0001) %MON dynstat_eta_del2             =   3.4790501221007E-14
(PID.TID 0000.0001) %MON dynstat_uvel_max             =   5.6296511117477E-09
(PID.TID 0000.0001) %MON dynstat_uvel_min             =  -3.8219599378987E-09
(PID.TID 0000.0001) %MON dynstat_uvel_mean            =   1.5372560334672E-13
(PID.TID 0000.0001) %MON dynstat_uvel_sd              =   1.3715871497422E-09
(PID.TID 0000.0001) %MON dynstat_uvel_del2            =   9.8851004839725E-14
(PID.TID 0000.0001) %MON dynstat_vvel_max             =   6.3327305826036E-09
(PID.TID 0000.0001) %MON dynstat_vvel_min             =  -8.0393486113763E-09
(PID.TID 0000.0001) %MON dynstat_vvel_mean            =   2.6378022920754E-14
(PID.TID 0000.0001) %MON dynstat_vvel_sd              =   2.4606064005014E-09
(PID.TID 0000.0001) %MON dynstat_vvel_del2            =   1.2597748540214E-13
(PID.TID 0000.0001) %MON dynstat_wvel_max             =   1.2351624137930E-14
(PID.TID 0000.0001) %MON dynstat_wvel_min             =  -1.3455254481709E-14
(PID.TID 0000.0001) %MON dynstat_wvel_mean            =   2.4043894148947E-28
(PID.TID 0000.0001) %MON dynstat_wvel_sd              =   6.0547581627286E-15
(PID.TID 0000.0001) %MON dynstat_wvel_del2            =   4.5091266179088E-20
(PID.TID 0000.0001) %MON dynstat_theta_max            =   2.0000000000000E+01
(PID.TID 0000.0001) %MON dynstat_theta_min            =   2.0000000000000E+01
(PID.TID 0000.0001) %MON dynstat_theta_mean           =   2.0000000000000E+01
(PID.TID 0000.0001) %MON dynstat_theta_sd             =   0.0000000000000E+00
(PID.TID 0000.0001) %MON dynstat_theta_del2           =   0.0000000000000E+00
(PID.TID 0000.0001) %MON dynstat_salt_max             =   3.0000000000000E+01
(PID.TID 0000.0001) %MON dynstat_salt_min             =   3.0000000000000E+01
(PID.TID 0000.0001) %MON dynstat_salt_mean            =   3.0000000000000E+01
(PID.TID 0000.0001) %MON dynstat_salt_sd              =   0.0000000000000E+00
(PID.TID 0000.0001) %MON dynstat_salt_del2            =   0.0000000000000E+00
(PID.TID 0000.0001) %MON trAdv_CFL_u_max              =   6.0727973737777E-09
(PID.TID 0000.0001) %MON trAdv_CFL_v_max              =   8.7189825592505E-09
(PID.TID 0000.0001) %MON trAdv_CFL_w_max              =   1.3247218446200E-14
(PID.TID 0000.0001) %MON advcfl_uvel_max              =   6.0800232006875E-09
(PID.TID 0000.0001) %MON advcfl_vvel_max              =   8.6824965002864E-09
(PID.TID 0000.0001) %MON advcfl_wvel_max              =   2.9063349680492E-14
(PID.TID 0000.0001) %MON advcfl_W_hf_max              =   0.0000000000000E+00
(PID.TID 0000.0001) %MON pe_b_mean                    =   6.3112104906402E-21
(PID.TID 0000.0001) %MON ke_max                       =   3.2878224966805E-17
(PID.TID 0000.0001) %MON ke_mean                      =   3.9517878496019E-18
(PID.TID 0000.0001) %MON ke_vol                       =   7.5645000000000E+15
(PID.TID 0000.0001) %MON vort_r_min                   =  -2.7936265639909E-13
(PID.TID 0000.0001) %MON vort_r_max                   =   2.5016340366621E-13
(PID.TID 0000.0001) %MON vort_a_mean                  =   8.2300000000000E-05
(PID.TID 0000.0001) %MON vort_a_sd                    =   7.1297555115603E-06
(PID.TID 0000.0001) %MON vort_p_mean                  =   8.3303658536585E-05
(PID.TID 0000.0001) %MON vort_p_sd                    =   1.7411470228951E-05
(PID.TID 0000.0001) %MON surfExpan_theta_mean         =   4.8374880790669E-27
(PID.TID 0000.0001) %MON surfExpan_salt_mean          =   7.3168955556424E-27
(PID.TID 0000.0001) // =======================================================
(PID.TID 0000.0001) // End MONITOR dynamic field statistics
(PID.TID 0000.0001) // =======================================================
 cg2d: Sum(rhs),rhsMax =  -5.86467567103115E-03  6.93120383322854E-10
 cg2d: Sum(rhs),rhsMax =  -5.86781615552557E-03  6.92749442458281E-10
 cg2d: Sum(rhs),rhsMax =  -5.87088098207149E-03  6.92387823580135E-10
 cg2d: Sum(rhs),rhsMax =  -5.87387206310469E-03  6.92035269848832E-10
 cg2d: Sum(rhs),rhsMax =  -5.87679139527039E-03  6.91691519097063E-10
 cg2d: Sum(rhs),rhsMax =  -5.87964102111082E-03  6.91356305382886E-10
 cg2d: Sum(rhs),rhsMax =  -5.88242306311283E-03  6.91029358399729E-10
 cg2d: Sum(rhs),rhsMax =  -5.88513964186735E-03  6.90710403208227E-10
 cg2d: Sum(rhs),rhsMax =  -5.88779294410120E-03  6.90399161149271E-10
 cg2d: Sum(rhs),rhsMax =  -5.89038522188812E-03  6.90095349304565E-10
 cg2d: Sum(rhs),rhsMax =  -5.89291875039038E-03  6.89798680647603E-10
 cg2d: Sum(rhs),rhsMax =  -5.89539587273096E-03  6.89508864317561E-10
 cg2d: Sum(rhs),rhsMax =  -5.89781896229729E-03  6.89225605425017E-10
 cg2d: Sum(rhs),rhsMax =  -5.90019044562055E-03  6.88948605409508E-10
 cg2d: Sum(rhs),rhsMax =  -5.90251277101542E-03  6.88677561822200E-10
 cg2d: Sum(rhs),rhsMax =  -5.90478846650103E-03  6.88412168693174E-10
(PID.TID 0000.0001)      cg2d_init_res =   2.48546282295780E-01
(PID.TID 0000.0001)      cg2d_iters(min,last) =      -1     537
(PID.TID 0000.0001)      cg2d_last_res =   9.47919209592964E-08
(PID.TID 0000.0001) // =======================================================
(PID.TID 0000.0001) // Begin MONITOR dynamic field statistics
(PID.TID 0000.0001) // =======================================================
(PID.TID 0000.0001) %MON time_tsnumber                =                  2048
(PID.TID 0000.0001) %MON time_secondsf                =   1.1059200000000E+07
(PID.TID 0000.0001) %MON dynstat_eta_max              =   5.1419425324300E-09
(PID.TID 0000.0001) %MON dynstat_eta_min              =  -8.2053739322520E-09
(PID.TID 0000.0001) %MON dynstat_eta_mean             =   3.9174205526732E-13
(PID.TID 0000.0001) %MON dynstat_eta_sd               =   2.5200311514777E-09
(PID.TID 0000.0001) %MON dynstat_eta_del2             =   3.4260158461464E-14
(PID.TID 0000.0001) %MON dynstat_uvel_max             =   5.6959060151296E-09
(PID.TID 0000.0001) %MON dynstat_uvel_min             =  -4.0243616978869E-09
(PID.TID 0000.0001) %MON dynstat_uvel_mean            =   1.9794834309039E-13
(PID.TID 0000.0001) %MON dynstat_uvel_sd              =   1.3727696294068E-09
(PID.TID 0000.0001) %MON dynstat_uvel_del2            =   9.6679213220283E-14
(PID.TID 0000.0001) %MON dynstat_vvel_max             =   6.7602082102179E-09
(PID.TID 0000.0001) %MON dynstat_vvel_min             =  -7.4767428565996E-09
(PID.TID 0000.0001) %MON dynstat_vvel_mean            =   1.9797727604059E-14
(PID.TID 0000.0001) %MON dynstat_vvel_sd              =   2.4275330564957E-09
(PID.TID 0000.0001) %MON dynstat_vvel_del2            =   1.2456502696285E-13
(PID.TID 0000.0001) %MON dynstat_wvel_max             =   1.3641008641541E-14
(PID.TID 0000.0001) %MON dynstat_wvel_min             =  -1.2064020085689E-14
(PID.TID 0000.0001) %MON dynstat_wvel_mean            =  -3.7318091866088E-28
(PID.TID 0000.0001) %MON dynstat_wvel_sd              =   6.0755202237146E-15
(PID.TID 0000.0001) %MON dynstat_wvel_del2            =   4.4698854313186E-20
(PID.TID 0000.0001) %MON dynstat_theta_max            =   2.0000000000000E+01
(PID.TID 0000.0001) %MON dynstat_theta_min            =   2.0000000000000E+01
(PID.TID 0000.0001) %MON dynstat_theta_mean           =   2.0000000000000E+01
(PID.TID 0000.0001) %MON dynstat_theta_sd             =   0.0000000000000E+00
(PID.TID 0000.0001) %MON dynstat_theta_del2           =   0.0000000000000E+00
(PID.TID 0000.0001) %MON dynstat_salt_max             =   3.0000000000000E+01
(PID.TID 0000.0001) %MON dynstat_salt_min             =   3.0000000000000E+01
(PID.TID 0000.0001) %MON dynstat_salt_mean            =   3.0000000000000E+01
(PID.TID 0000.0001) %MON dynstat_salt_sd              =   0.0000000000000E+00
(PID.TID 0000.0001) %MON dynstat_salt_del2            =   0.0000000000000E+00
(PID.TID 0000.0001) %MON trAdv_CFL_u_max              =   6.1495642464479E-09
(PID.TID 0000.0001) %MON trAdv_CFL_v_max              =   8.1139357408554E-09
(PID.TID 0000.0001) %MON trAdv_CFL_w_max              =   1.4650608769751E-14
(PID.TID 0000.0001) %MON advcfl_uvel_max              =   6.1515784963400E-09
(PID.TID 0000.0001) %MON advcfl_vvel_max              =   8.0748822851275E-09
(PID.TID 0000.0001) %MON advcfl_wvel_max              =   2.9464578665728E-14
(PID.TID 0000.0001) %MON advcfl_W_hf_max              =   0.0000000000000E+00
(PID.TID 0000.0001) %MON pe_b_mean                    =   6.2298965718802E-21
(PID.TID 0000.0001) %MON ke_max                       =   2.8705964868140E-17
(PID.TID 0000.0001) %MON ke_mean                      =   3.8728988672099E-18
(PID.TID 0000.0001) %MON ke_vol                       =   7.5645000000000E+15
(PID.TID 0000.0001) %MON vort_r_min                   =  -2.7327551062305E-13
(PID.TID 0000.0001) %MON vort_r_max                   =   2.2537709539430E-13
(PID.TID 0000.0001) %MON vort_a_mean                  =   8.2300000000000E-05
(PID.TID 0000.0001) %MON vort_a_sd                    =   7.1297555115568E-06
(PID.TID 0000.0001) %MON vort_p_mean                  =   8.3303658536585E-05
(PID.TID 0000.0001) %MON vort_p_sd                    =   1.7411470228979E-05
(PID.TID 0000.0001) %MON surfExpan_theta_mean         =  -7.4914507437996E-27
(PID.TID 0000.0001) %MON surfExpan_salt_mean          =  -1.1265993935688E-26
(PID.TID 0000.0001) // =======================================================
(PID.TID 0000.0001) // End MONITOR dynamic field statistics
(PID.TID 0000.0001) // =======================================================
 cg2d: Sum(rhs),rhsMax =  -5.90702007134095E-03  6.88152116317243E-10
 cg2d: Sum(rhs),rhsMax =  -5.90921017962906E-03  6.87897091618087E-10
 cg2d: Sum(rhs),rhsMax =  -5.91136141192464E-03  6.87646777944647E-10
 cg2d: Sum(rhs),rhsMax =  -5.91347644191756E-03  6.87400855424202E-10
 cg2d: Sum(rhs),rhsMax =  -5.91555796816897E-03  6.87159000776602E-10
 cg2d: Sum(rhs),rhsMax =  -5.91760873355348E-03  6.86920887649711E-10
 cg2d: Sum(rhs),rhsMax =  -5.91963151970494E-03  6.86686186457757E-10
 cg2d: Sum(rhs),rhsMax =  -5.92162912658276E-03  6.86454564692613E-10
 cg2d: Sum(rhs),rhsMax =  -5.92360440605243E-03  6.86225686792702E-10
 cg2d: Sum(rhs),rhsMax =  -5.92556022883318E-03  6.85999214423766E-10
 cg2d: Sum(rhs),rhsMax =  -5.92749952220895E-03  6.85774806383903E-10
 cg2d: Sum(rhs),rhsMax =  -5.92942521577583E-03  6.85552118848711E-10
 cg2d: Sum(rhs),rhsMax =  -5.93134028637078E-03  6.85330805316962E-10
 cg2d: Sum(rhs),rhsMax =  -5.93324773331138E-03  6.85110516816431E-10
 cg2d: Sum(rhs),rhsMax =  -5.93515059078682E-03  6.84890901892370E-10
 cg2d: Sum(rhs),rhsMax =  -5.93705192634144E-03  6.84671606772184E-10
(PID.TID 0000.0001)      cg2d_init_res =   2.47253806675800E-01
(PID.TID 0000.0001)      cg2d_iters(min,last) =      -1     537
(PID.TID 0000.0001)      cg2d_last_res =   9.72431566525110E-08
(PID.TID 0000.0001) // =======================================================
(PID.TID 0000.0001) // Begin MONITOR dynamic field statistics
(PID.TID 0000.0001) // =======================================================
(PID.TID 0000.0001) %MON time_tsnumber                =                  2064
(PID.TID 0000.0001) %MON time_secondsf                =   1.1145600000000E+07
(PID.TID 0000.0001) %MON dynstat_eta_max              =   4.7774132845005E-09
(PID.TID 0000.0001) %MON dynstat_eta_min              =  -8.0089407170256E-09
(PID.TID 0000.0001) %MON dynstat_eta_mean             =   3.9174232299994E-13
(PID.TID 0000.0001) %MON dynstat_eta_sd               =   2.5043203947290E-09
(PID.TID 0000.0001) %MON dynstat_eta_del2             =   3.3765728311655E-14
(PID.TID 0000.0001) %MON dynstat_uvel_max             =   5.6625980613991E-09
(PID.TID 0000.0001) %MON dynstat_uvel_min             =  -4.1944304047219E-09
(PID.TID 0000.0001) %MON dynstat_uvel_mean            =   2.3104856490727E-13
(PID.TID 0000.0001) %MON dynstat_uvel_sd              =   1.3702186607077E-09
(PID.TID 0000.0001) %MON dynstat_uvel_del2            =   9.4012636600282E-14
(PID.TID 0000.0001) %MON dynstat_vvel_max             =   7.1219943776875E-09
(PID.TID 0000.0001) %MON dynstat_vvel_min             =  -6.8609171705243E-09
(PID.TID 0000.0001) %MON dynstat_vvel_mean            =   1.2459017264060E-14
(PID.TID 0000.0001) %MON dynstat_vvel_sd              =   2.3970109858745E-09
(PID.TID 0000.0001) %MON dynstat_vvel_del2            =   1.2315842763493E-13
(PID.TID 0000.0001) %MON dynstat_wvel_max             =   1.4797501785013E-14
(PID.TID 0000.0001) %MON dynstat_wvel_min             =  -1.2011622516628E-14
(PID.TID 0000.0001) %MON dynstat_wvel_mean            =  -3.3765138271097E-28
(PID.TID 0000.0001) %MON dynstat_wvel_sd              =   6.0985729741682E-15
(PID.TID 0000.0001) %MON dynstat_wvel_del2            =   4.4265040382224E-20
(PID.TID 0000.0001) %MON dynstat_theta_max            =   2.0000000000000E+01
(PID.TID 0000.0001) %MON dynstat_theta_min            =   2.0000000000000E+01
(PID.TID 0000.0001) %MON dynstat_theta_mean           =   2.0000000000000E+01
(PID.TID 0000.0001) %MON dynstat_theta_sd             =   0.0000000000000E+00
(PID.TID 0000.0001) %MON dynstat_theta_del2           =   0.0000000000000E+00
(PID.TID 0000.0001) %MON dynstat_salt_max             =   3.0000000000000E+01
(PID.TID 0000.0001) %MON dynstat_salt_min             =   3.0000000000000E+01
(PID.TID 0000.0001) %MON dynstat_salt_mean            =   3.0000000000000E+01
(PID.TID 0000.0001) %MON dynstat_salt_sd              =   0.0000000000000E+00
(PID.TID 0000.0001) %MON dynstat_salt_del2            =   0.0000000000000E+00
(PID.TID 0000.0001) %MON trAdv_CFL_u_max              =   6.1213638436011E-09
(PID.TID 0000.0001) %MON trAdv_CFL_v_max              =   7.6696899686313E-09
(PID.TID 0000.0001) %MON trAdv_CFL_w_max              =   1.5909406908676E-14
(PID.TID 0000.0001) %MON advcfl_uvel_max              =   6.1156059063110E-09
(PID.TID 0000.0001) %MON advcfl_vvel_max              =   7.6917539279025E-09
(PID.TID 0000.0001) %MON advcfl_wvel_max              =   3.1962603855629E-14
(PID.TID 0000.0001) %MON advcfl_W_hf_max              =   0.0000000000000E+00
(PID.TID 0000.0001) %MON pe_b_mean                    =   6.1524599978523E-21
(PID.TID 0000.0001) %MON ke_max                       =   2.7078220340612E-17
(PID.TID 0000.0001) %MON ke_mean                      =   3.7960862195791E-18
(PID.TID 0000.0001) %MON ke_vol                       =   7.5645000000000E+15
(PID.TID 0000.0001) %MON vort_r_min                   =  -2.7026553328164E-13
(PID.TID 0000.0001) %MON vort_r_max                   =   1.9796024836433E-13
(PID.TID 0000.0001) %MON vort_a_mean                  =   8.2299999999999E-05
(PID.TID 0000.0001) %MON vort_a_sd                    =   7.1297555115757E-06
(PID.TID 0000.0001) %MON vort_p_mean                  =   8.3303658536584E-05
(PID.TID 0000.0001) %MON vort_p_sd                    =   1.7411470229027E-05
(PID.TID 0000.0001) %MON surfExpan_theta_mean         =  -6.7347881330396E-27
(PID.TID 0000.0001) %MON surfExpan_salt_mean          =  -1.0091852529471E-26
(PID.TID 0000.0001) // =======================================================
(PID.TID 0000.0001) // End MONITOR dynamic field statistics
(PID.TID 0000.0001) // =======================================================
 cg2d: Sum(rhs),rhsMax =  -5.93895482317223E-03  6.84452275398621E-10
 cg2d: Sum(rhs),rhsMax =  -5.94086239370055E-03  6.84232549551849E-10
 cg2d: Sum(rhs),rhsMax =  -5.94277778274888E-03  6.84012068927214E-10
 cg2d: Sum(rhs),rhsMax =  -5.94470416656795E-03  6.83790471215626E-10
 cg2d: Sum(rhs),rhsMax =  -5.94664474523388E-03  6.83567392224575E-10
 cg2d: Sum(rhs),rhsMax =  -5.94860265228930E-03  6.83342465780349E-10
 cg2d: Sum(rhs),rhsMax =  -5.95058120884561E-03  6.83115324453564E-10
 cg2d: Sum(rhs),rhsMax =  -5.95258369485186E-03  6.82885598701070E-10
 cg2d: Sum(rhs),rhsMax =  -5.95461341342654E-03  6.82652917622164E-10
 cg2d: Sum(rhs),rhsMax =  -5.95667368135679E-03  6.82416908875805E-10
 cg2d: Sum(rhs),rhsMax =  -5.95876786392096E-03  6.82177198757854E-10
 cg2d: Sum(rhs),rhsMax =  -5.96089919406504E-03  6.81933412415056E-10
 cg2d: Sum(rhs),rhsMax =  -5.96307124351656E-03  6.81685173397683E-10
 cg2d: Sum(rhs),rhsMax =  -5.96528751100622E-03  6.81432104841022E-10
 cg2d: Sum(rhs),rhsMax =  -5.96755157745842E-03  6.81173828489279E-10
 cg2d: Sum(rhs),rhsMax =  -5.96986691659706E-03  6.80909965325453E-10
(PID.TID 0000.0001)      cg2d_init_res =   2.45918902006737E-01
(PID.TID 0000.0001)      cg2d_iters(min,last) =      -1     540
(PID.TID 0000.0001)      cg2d_last_res =   8.82622420701443E-08
(PID.TID 0000.0001) // =======================================================
(PID.TID 0000.0001) // Begin MONITOR dynamic field statistics
(PID.TID 0000.0001) // =======================================================
(PID.TID 0000.0001) %MON time_tsnumber                =                  2080
(PID.TID 0000.0001) %MON time_secondsf                =   1.1232000000000E+07
(PID.TID 0000.0001) %MON dynstat_eta_max              =   4.3806093198300E-09
(PID.TID 0000.0001) %MON dynstat_eta_min              =  -7.6756582346309E-09
(PID.TID 0000.0001) %MON dynstat_eta_mean             =   3.9174365191902E-13
(PID.TID 0000.0001) %MON dynstat_eta_sd               =   2.4914167815220E-09
(PID.TID 0000.0001) %MON dynstat_eta_del2             =   3.3299111080506E-14
(PID.TID 0000.0001) %MON dynstat_uvel_max             =   5.5336615674062E-09
(PID.TID 0000.0001) %MON dynstat_uvel_min             =  -4.3222385245141E-09
(PID.TID 0000.0001) %MON dynstat_uvel_mean            =   2.5109980967956E-13
(PID.TID 0000.0001) %MON dynstat_uvel_sd              =   1.3612137620446E-09
(PID.TID 0000.0001) %MON dynstat_uvel_del2            =   9.1053850110566E-14
(PID.TID 0000.0001) %MON dynstat_vvel_max             =   7.4086968098845E-09
(PID.TID 0000.0001) %MON dynstat_vvel_min             =  -6.2129991974482E-09
(PID.TID 0000.0001) %MON dynstat_vvel_mean            =   4.6180654689457E-15
(PID.TID 0000.0001) %MON dynstat_vvel_sd              =   2.3706420164304E-09
(PID.TID 0000.0001) %MON dynstat_vvel_del2            =   1.2152220520631E-13
(PID.TID 0000.0001) %MON dynstat_wvel_max             =   1.5761065965680E-14
(PID.TID 0000.0001) %MON dynstat_wvel_min             =  -1.1653599935046E-14
(PID.TID 0000.0001) %MON dynstat_wvel_mean            =   3.8899407883125E-28
(PID.TID 0000.0001) %MON dynstat_wvel_sd              =   6.1176413390590E-15
(PID.TID 0000.0001) %MON dynstat_wvel_del2            =   4.3778973049086E-20
(PID.TID 0000.0001) %MON dynstat_theta_max            =   2.0000000000000E+01
(PID.TID 0000.0001) %MON dynstat_theta_min            =   2.0000000000000E+01
(PID.TID 0000.0001) %MON dynstat_theta_mean           =   2.0000000000000E+01
(PID.TID 0000.0001) %MON dynstat_theta_sd             =   0.0000000000000E+00
(PID.TID 0000.0001) %MON dynstat_theta_del2           =   0.0000000000000E+00
(PID.TID 0000.0001) %MON dynstat_salt_max             =   3.0000000000000E+01
(PID.TID 0000.0001) %MON dynstat_salt_min             =   3.0000000000000E+01
(PID.TID 0000.0001) %MON dynstat_salt_mean            =   3.0000000000000E+01
(PID.TID 0000.0001) %MON dynstat_salt_sd              =   0.0000000000000E+00
(PID.TID 0000.0001) %MON dynstat_salt_del2            =   0.0000000000000E+00
(PID.TID 0000.0001) %MON trAdv_CFL_u_max              =   5.9876548217620E-09
(PID.TID 0000.0001) %MON trAdv_CFL_v_max              =   7.9839364546045E-09
(PID.TID 0000.0001) %MON trAdv_CFL_w_max              =   1.6962124598896E-14
(PID.TID 0000.0001) %MON advcfl_uvel_max              =   5.9763544927987E-09
(PID.TID 0000.0001) %MON advcfl_vvel_max              =   8.0013925546752E-09
(PID.TID 0000.0001) %MON advcfl_wvel_max              =   3.4043902485870E-14
(PID.TID 0000.0001) %MON advcfl_W_hf_max              =   0.0000000000000E+00
(PID.TID 0000.0001) %MON pe_b_mean                    =   6.0892217357908E-21
(PID.TID 0000.0001) %MON ke_max                       =   2.8722706625529E-17
(PID.TID 0000.0001) %MON ke_mean                      =   3.7212345570807E-18
(PID.TID 0000.0001) %MON ke_vol                       =   7.5645000000000E+15
(PID.TID 0000.0001) %MON vort_r_min                   =  -2.6855751789328E-13
(PID.TID 0000.0001) %MON vort_r_max                   =   1.7844685037299E-13
(PID.TID 0000.0001) %MON vort_a_mean                  =   8.2300000000000E-05
(PID.TID 0000.0001) %MON vort_a_sd                    =   7.1297555115586E-06
(PID.TID 0000.0001) %MON vort_p_mean                  =   8.3303658536586E-05
(PID.TID 0000.0001) %MON vort_p_sd                    =   1.7411470229071E-05
(PID.TID 0000.0001) %MON surfExpan_theta_mean         =   7.7820688733488E-27
(PID.TID 0000.0001) %MON surfExpan_salt_mean          =   1.1671949410291E-26
(PID.TID 0000.0001) // =======================================================
(PID.TID 0000.0001) // End MONITOR dynamic field statistics
(PID.TID 0000.0001) // =======================================================
 cg2d: Sum(rhs),rhsMax =  -5.97223807438110E-03  6.80640135386018E-10
 cg2d: Sum(rhs),rhsMax =  -5.97467216701191E-03  6.80363958289376E-10
 cg2d: Sum(rhs),rhsMax =  -5.97579568458980E-03  6.80081051411301E-10
 cg2d: Sum(rhs),rhsMax =  -5.97833614012005E-03  6.79791038787101E-10
 cg2d: Sum(rhs),rhsMax =  -5.98094882941880E-03  6.79493530547548E-10
 cg2d: Sum(rhs),rhsMax =  -5.98363461015567E-03  6.79188149222448E-10
 cg2d: Sum(rhs),rhsMax =  -5.98639635214158E-03  6.78874511069474E-10
 cg2d: Sum(rhs),rhsMax =  -5.98923752405476E-03  6.78552233855630E-10
 cg2d: Sum(rhs),rhsMax =  -5.99216138015792E-03  6.78220934262469E-10
 cg2d: Sum(rhs),rhsMax =  -5.99517147017479E-03  6.77880230148989E-10
 cg2d: Sum(rhs),rhsMax =  -5.99827137839893E-03  6.77529739084210E-10
 cg2d: Sum(rhs),rhsMax =  -6.00146472746572E-03  6.77169078940104E-10
 cg2d: Sum(rhs),rhsMax =  -6.00475518786288E-03  6.76797868040583E-10
 cg2d: Sum(rhs),rhsMax =  -6.00814674054486E-03  6.76415724162340E-10
 cg2d: Sum(rhs),rhsMax =  -6.01164276414777E-03  6.76022268684657E-10
 cg2d: Sum(rhs),rhsMax =  -6.01524700663268E-03  6.75617120198071E-10
(PID.TID 0000.0001)      cg2d_init_res =   2.45329892449675E-01
(PID.TID 0000.0001)      cg2d_iters(min,last) =      -1     547
(PID.TID 0000.0001)      cg2d_last_res =   9.19006282652338E-08
(PID.TID 0000.0001) // =======================================================
(PID.TID 0000.0001) // Begin MONITOR dynamic field statistics
(PID.TID 0000.0001) // =======================================================
(PID.TID 0000.0001) %MON time_tsnumber                =                  2096
(PID.TID 0000.0001) %MON time_secondsf                =   1.1318400000000E+07
(PID.TID 0000.0001) %MON dynstat_eta_max              =   4.5424396935783E-09
(PID.TID 0000.0001) %MON dynstat_eta_min              =  -7.2144093145729E-09
(PID.TID 0000.0001) %MON dynstat_eta_mean             =   3.9165292691806E-13
(PID.TID 0000.0001) %MON dynstat_eta_sd               =   2.4830527714750E-09
(PID.TID 0000.0001) %MON dynstat_eta_del2             =   3.2849078420047E-14
(PID.TID 0000.0001) %MON dynstat_uvel_max             =   5.3068795273271E-09
(PID.TID 0000.0001) %MON dynstat_uvel_min             =  -4.4019733039506E-09
(PID.TID 0000.0001) %MON dynstat_uvel_mean            =   2.5690740171734E-13
(PID.TID 0000.0001) %MON dynstat_uvel_sd              =   1.3443977377456E-09
(PID.TID 0000.0001) %MON dynstat_uvel_del2            =   8.8118178613796E-14
(PID.TID 0000.0001) %MON dynstat_vvel_max             =   7.6121624364274E-09
(PID.TID 0000.0001) %MON dynstat_vvel_min             =  -5.6320097791932E-09
(PID.TID 0000.0001) %MON dynstat_vvel_mean            =  -3.4403350038601E-15
(PID.TID 0000.0001) %MON dynstat_vvel_sd              =   2.3492477088856E-09
(PID.TID 0000.0001) %MON dynstat_vvel_del2            =   1.1945264051646E-13
(PID.TID 0000.0001) %MON dynstat_wvel_max             =   1.6475578672459E-14
(PID.TID 0000.0001) %MON dynstat_wvel_min             =  -1.1041109010401E-14
(PID.TID 0000.0001) %MON dynstat_wvel_mean            =  -2.3723026490338E-28
(PID.TID 0000.0001) %MON dynstat_wvel_sd              =   6.1281222687830E-15
(PID.TID 0000.0001) %MON dynstat_wvel_del2            =   4.3310730474924E-20
(PID.TID 0000.0001) %MON dynstat_theta_max            =   2.0000000000000E+01
(PID.TID 0000.0001) %MON dynstat_theta_min            =   2.0000000000000E+01
(PID.TID 0000.0001) %MON dynstat_theta_mean           =   2.0000000000000E+01
(PID.TID 0000.0001) %MON dynstat_theta_sd             =   0.0000000000000E+00
(PID.TID 0000.0001) %MON dynstat_theta_del2           =   0.0000000000000E+00
(PID.TID 0000.0001) %MON dynstat_salt_max             =   3.0000000000000E+01
(PID.TID 0000.0001) %MON dynstat_salt_min             =   3.0000000000000E+01
(PID.TID 0000.0001) %MON dynstat_salt_mean            =   3.0000000000000E+01
(PID.TID 0000.0001) %MON dynstat_salt_sd              =   0.0000000000000E+00
(PID.TID 0000.0001) %MON dynstat_salt_del2            =   0.0000000000000E+00
(PID.TID 0000.0001) %MON trAdv_CFL_u_max              =   5.7494122255032E-09
(PID.TID 0000.0001) %MON trAdv_CFL_v_max              =   8.2085547632171E-09
(PID.TID 0000.0001) %MON trAdv_CFL_w_max              =   1.7755773476313E-14
(PID.TID 0000.0001) %MON advcfl_uvel_max              =   5.7314298895133E-09
(PID.TID 0000.0001) %MON advcfl_vvel_max              =   8.2211354313416E-09
(PID.TID 0000.0001) %MON advcfl_wvel_max              =   3.5587249932512E-14
(PID.TID 0000.0001) %MON advcfl_W_hf_max              =   0.0000000000000E+00
(PID.TID 0000.0001) %MON pe_b_mean                    =   6.0484057461546E-21
(PID.TID 0000.0001) %MON ke_max                       =   2.9820752516078E-17
(PID.TID 0000.0001) %MON ke_mean                      =   3.6482940742651E-18
(PID.TID 0000.0001) %MON ke_vol                       =   7.5645000000000E+15
(PID.TID 0000.0001) %MON vort_r_min                   =  -2.6658042499692E-13
(PID.TID 0000.0001) %MON vort_r_max                   =   1.8588642770089E-13
(PID.TID 0000.0001) %MON vort_a_mean                  =   8.2300000000001E-05
(PID.TID 0000.0001) %MON vort_a_sd                    =   7.1297555115542E-06
(PID.TID 0000.0001) %MON vort_p_mean                  =   8.3303658536586E-05
(PID.TID 0000.0001) %MON vort_p_sd                    =   1.7411470229133E-05
(PID.TID 0000.0001) %MON surfExpan_theta_mean         =  -4.7302341907467E-27
(PID.TID 0000.0001) %MON surfExpan_salt_mean          =  -7.0956222649993E-27
(PID.TID 0000.0001) // =======================================================
(PID.TID 0000.0001) // End MONITOR dynamic field statistics
(PID.TID 0000.0001) // =======================================================
 cg2d: Sum(rhs),rhsMax =  -6.01896345814866E-03  6.75199899048342E-10
 cg2d: Sum(rhs),rhsMax =  -6.02279564064601E-03  6.74770228437064E-10
 cg2d: Sum(rhs),rhsMax =  -6.02666455459307E-03  6.74336997491603E-10
 cg2d: Sum(rhs),rhsMax =  -6.03051287702619E-03  6.73906624696179E-10
 cg2d: Sum(rhs),rhsMax =  -6.03448989086225E-03  6.73462439368591E-10
 cg2d: Sum(rhs),rhsMax =  -6.03859956669149E-03  6.73004056388042E-10
 cg2d: Sum(rhs),rhsMax =  -6.04284591828836E-03  6.72531092208887E-10
 cg2d: Sum(rhs),rhsMax =  -6.04723290442713E-03  6.72043164117130E-10
 cg2d: Sum(rhs),rhsMax =  -6.05176455951708E-03  6.71539891514247E-10
 cg2d: Sum(rhs),rhsMax =  -6.05644493991387E-03  6.71020895348093E-10
 cg2d: Sum(rhs),rhsMax =  -6.06127812375335E-03  6.70485798277210E-10
 cg2d: Sum(rhs),rhsMax =  -6.06626827068400E-03  6.69934225039506E-10
 cg2d: Sum(rhs),rhsMax =  -6.07141948332191E-03  6.69365801744713E-10
 cg2d: Sum(rhs),rhsMax =  -6.07673593920269E-03  6.68780156935913E-10
 cg2d: Sum(rhs),rhsMax =  -6.08222183806961E-03  6.68176921333479E-10
 cg2d: Sum(rhs),rhsMax =  -6.08788142356936E-03  6.67555727792909E-10
(PID.TID 0000.0001)      cg2d_init_res =   2.46268823797545E-01
(PID.TID 0000.0001)      cg2d_iters(min,last) =      -1     549
(PID.TID 0000.0001)      cg2d_last_res =   9.93741873613365E-08
(PID.TID 0000.0001) // =======================================================
(PID.TID 0000.0001) // Begin MONITOR dynamic field statistics
(PID.TID 0000.0001) // =======================================================
(PID.TID 0000.0001) %MON time_tsnumber                =                  2112
(PID.TID 0000.0001) %MON time_secondsf                =   1.1404800000000E+07
(PID.TID 0000.0001) %MON dynstat_eta_max              =   5.1913384254940E-09
(PID.TID 0000.0001) %MON dynstat_eta_min              =  -6.6320147611759E-09
(PID.TID 0000.0001) %MON dynstat_eta_mean             =   3.9165258530631E-13
(PID.TID 0000.0001) %MON dynstat_eta_sd               =   2.4802115328434E-09
(PID.TID 0000.0001) %MON dynstat_eta_del2             =   3.2402387701557E-14
(PID.TID 0000.0001) %MON dynstat_uvel_max             =   4.9869321868367E-09
(PID.TID 0000.0001) %MON dynstat_uvel_min             =  -4.4241746533510E-09
(PID.TID 0000.0001) %MON dynstat_uvel_mean            =   2.4807166802124E-13
(PID.TID 0000.0001) %MON dynstat_uvel_sd              =   1.3201803294520E-09
(PID.TID 0000.0001) %MON dynstat_uvel_del2            =   8.5584652742103E-14
(PID.TID 0000.0001) %MON dynstat_vvel_max             =   7.7276620623123E-09
(PID.TID 0000.0001) %MON dynstat_vvel_min             =  -5.3852375183918E-09
(PID.TID 0000.0001) %MON dynstat_vvel_mean            =  -1.1416254289962E-14
(PID.TID 0000.0001) %MON dynstat_vvel_sd              =   2.3325709178993E-09
(PID.TID 0000.0001) %MON dynstat_vvel_del2            =   1.1682492086628E-13
(PID.TID 0000.0001) %MON dynstat_wvel_max             =   1.6908386895054E-14
(PID.TID 0000.0001) %MON dynstat_wvel_min             =  -1.0397155919550E-14
(PID.TID 0000.0001) %MON dynstat_wvel_mean            =  -4.8038254971197E-28
(PID.TID 0000.0001) %MON dynstat_wvel_sd              =   6.1278374898560E-15
(PID.TID 0000.0001) %MON dynstat_wvel_del2            =   4.2865259654092E-20
(PID.TID 0000.0001) %MON dynstat_theta_max            =   2.0000000000000E+01
(PID.TID 0000.0001) %MON dynstat_theta_min            =   2.0000000000000E+01
(PID.TID 0000.0001) %MON dynstat_theta_mean           =   2.0000000000000E+01
(PID.TID 0000.0001) %MON dynstat_theta_sd             =   0.0000000000000E+00
(PID.TID 0000.0001) %MON dynstat_theta_del2           =   0.0000000000000E+00
(PID.TID 0000.0001) %MON dynstat_salt_max             =   3.0000000000000E+01
(PID.TID 0000.0001) %MON dynstat_salt_min             =   3.0000000000000E+01
(PID.TID 0000.0001) %MON dynstat_salt_mean            =   3.0000000000000E+01
(PID.TID 0000.0001) %MON dynstat_salt_sd              =   0.0000000000000E+00
(PID.TID 0000.0001) %MON dynstat_salt_del2            =   0.0000000000000E+00
(PID.TID 0000.0001) %MON trAdv_CFL_u_max              =   5.4103187501552E-09
(PID.TID 0000.0001) %MON trAdv_CFL_v_max              =   8.3422120860323E-09
(PID.TID 0000.0001) %MON trAdv_CFL_w_max              =   1.8239352395222E-14
(PID.TID 0000.0001) %MON advcfl_uvel_max              =   5.3858867617836E-09
(PID.TID 0000.0001) %MON advcfl_vvel_max              =   8.3458750272973E-09
(PID.TID 0000.0001) %MON advcfl_wvel_max              =   3.6522115693316E-14
(PID.TID 0000.0001) %MON advcfl_W_hf_max              =   0.0000000000000E+00
(PID.TID 0000.0001) %MON pe_b_mean                    =   6.0345718624213E-21
(PID.TID 0000.0001) %MON ke_max                       =   3.0336011319995E-17
(PID.TID 0000.0001) %MON ke_mean                      =   3.5772804806666E-18
(PID.TID 0000.0001) %MON ke_vol                       =   7.5645000000000E+15
(PID.TID 0000.0001) %MON vort_r_min                   =  -2.6384644651844E-13
(PID.TID 0000.0001) %MON vort_r_max                   =   1.8642890061983E-13
(PID.TID 0000.0001) %MON vort_a_mean                  =   8.2300000000000E-05
(PID.TID 0000.0001) %MON vort_a_sd                    =   7.1297555115679E-06
(PID.TID 0000.0001) %MON vort_p_mean                  =   8.3303658536585E-05
(PID.TID 0000.0001) %MON vort_p_sd                    =   1.7411470229212E-05
(PID.TID 0000.0001) %MON surfExpan_theta_mean         =  -9.5293149327909E-27
(PID.TID 0000.0001) %MON surfExpan_salt_mean          =  -1.4315359575196E-26
(PID.TID 0000.0001) // =======================================================
(PID.TID 0000.0001) // End MONITOR dynamic field statistics
(PID.TID 0000.0001) // =======================================================
 cg2d: Sum(rhs),rhsMax =  -6.09371897719328E-03  6.66916211511013E-10
 cg2d: Sum(rhs),rhsMax =  -6.09973883048692E-03  6.66258010230487E-10
 cg2d: Sum(rhs),rhsMax =  -6.10594530722975E-03  6.65580763799823E-10
 cg2d: Sum(rhs),rhsMax =  -6.11234278520021E-03  6.64884115200350E-10
 cg2d: Sum(rhs),rhsMax =  -6.11893571194560E-03  6.64167709857446E-10
 cg2d: Sum(rhs),rhsMax =  -6.12572853985305E-03  6.63431196023782E-10
 cg2d: Sum(rhs),rhsMax =  -6.13272578509980E-03  6.62674224852011E-10
 cg2d: Sum(rhs),rhsMax =  -6.13993201494274E-03  6.61896450477590E-10
 cg2d: Sum(rhs),rhsMax =  -6.14735182920011E-03  6.61097530109709E-10
 cg2d: Sum(rhs),rhsMax =  -6.15498986520712E-03  6.60277124123023E-10
 cg2d: Sum(rhs),rhsMax =  -6.16285085287143E-03  6.59434896147778E-10
 cg2d: Sum(rhs),rhsMax =  -6.17093953980751E-03  6.58570513158522E-10
 cg2d: Sum(rhs),rhsMax =  -6.17926073762176E-03  6.57683645562609E-10
 cg2d: Sum(rhs),rhsMax =  -6.18781931457512E-03  6.56773967287397E-10
 cg2d: Sum(rhs),rhsMax =  -6.19662020076635E-03  6.55841155867669E-10
 cg2d: Sum(rhs),rhsMax =  -6.20566837705308E-03  6.54884892531829E-10
(PID.TID 0000.0001)      cg2d_init_res =   2.49845525299008E-01
(PID.TID 0000.0001)      cg2d_iters(min,last) =      -1     550
(PID.TID 0000.0001)      cg2d_last_res =   9.04650200140266E-08
(PID.TID 0000.0001) // =======================================================
(PID.TID 0000.0001) // Begin MONITOR dynamic field statistics
(PID.TID 0000.0001) // =======================================================
(PID.TID 0000.0001) %MON time_tsnumber                =                  2128
(PID.TID 0000.0001) %MON time_secondsf                =   1.1491200000000E+07
(PID.TID 0000.0001) %MON dynstat_eta_max              =   5.7781670485346E-09
(PID.TID 0000.0001) %MON dynstat_eta_min              =  -5.9486823264473E-09
(PID.TID 0000.0001) %MON dynstat_eta_mean             =   3.9165243188581E-13
(PID.TID 0000.0001) %MON dynstat_eta_sd               =   2.4829508304993E-09
(PID.TID 0000.0001) %MON dynstat_eta_del2             =   3.1945437307814E-14
(PID.TID 0000.0001) %MON dynstat_uvel_max             =   4.5836164626398E-09
(PID.TID 0000.0001) %MON dynstat_uvel_min             =  -4.3884849519187E-09
(PID.TID 0000.0001) %MON dynstat_uvel_mean            =   2.2500679340911E-13
(PID.TID 0000.0001) %MON dynstat_uvel_sd              =   1.2908762736042E-09
(PID.TID 0000.0001) %MON dynstat_uvel_del2            =   8.3813827388670E-14
(PID.TID 0000.0001) %MON dynstat_vvel_max             =   7.7578523256991E-09
(PID.TID 0000.0001) %MON dynstat_vvel_min             =  -5.0755482223854E-09
(PID.TID 0000.0001) %MON dynstat_vvel_mean            =  -1.9008930293847E-14
(PID.TID 0000.0001) %MON dynstat_vvel_sd              =   2.3192257990985E-09
(PID.TID 0000.0001) %MON dynstat_vvel_del2            =   1.1363543642728E-13
(PID.TID 0000.0001) %MON dynstat_wvel_max             =   1.7035823796085E-14
(PID.TID 0000.0001) %MON dynstat_wvel_min             =  -9.7316601949116E-15
(PID.TID 0000.0001) %MON dynstat_wvel_mean            =  -2.8342389202332E-28
(PID.TID 0000.0001) %MON dynstat_wvel_sd              =   6.1172239116729E-15
(PID.TID 0000.0001) %MON dynstat_wvel_del2            =   4.2453683403821E-20
(PID.TID 0000.0001) %MON dynstat_theta_max            =   2.0000000000000E+01
(PID.TID 0000.0001) %MON dynstat_theta_min            =   2.0000000000000E+01
(PID.TID 0000.0001) %MON dynstat_theta_mean           =   2.0000000000000E+01
(PID.TID 0000.0001) %MON dynstat_theta_sd             =   0.0000000000000E+00
(PID.TID 0000.0001) %MON dynstat_theta_del2           =   0.0000000000000E+00
(PID.TID 0000.0001) %MON dynstat_salt_max             =   3.0000000000000E+01
(PID.TID 0000.0001) %MON dynstat_salt_min             =   3.0000000000000E+01
(PID.TID 0000.0001) %MON dynstat_salt_mean            =   3.0000000000000E+01
(PID.TID 0000.0001) %MON dynstat_salt_sd              =   0.0000000000000E+00
(PID.TID 0000.0001) %MON dynstat_salt_del2            =   0.0000000000000E+00
(PID.TID 0000.0001) %MON trAdv_CFL_u_max              =   4.9801569567410E-09
(PID.TID 0000.0001) %MON trAdv_CFL_v_max              =   8.3802347318772E-09
(PID.TID 0000.0001) %MON trAdv_CFL_w_max              =   1.8401515470989E-14
(PID.TID 0000.0001) %MON advcfl_uvel_max              =   4.9503057796509E-09
(PID.TID 0000.0001) %MON advcfl_vvel_max              =   8.3784805117550E-09
(PID.TID 0000.0001) %MON advcfl_wvel_max              =   3.6797379399545E-14
(PID.TID 0000.0001) %MON advcfl_W_hf_max              =   0.0000000000000E+00
(PID.TID 0000.0001) %MON pe_b_mean                    =   6.0479091254475E-21
(PID.TID 0000.0001) %MON ke_max                       =   3.0289099694471E-17
(PID.TID 0000.0001) %MON ke_mean                      =   3.5082655049333E-18
(PID.TID 0000.0001) %MON ke_vol                       =   7.5645000000000E+15
(PID.TID 0000.0001) %MON vort_r_min                   =  -2.5971853554446E-13
(PID.TID 0000.0001) %MON vort_r_max                   =   1.7959560628348E-13
(PID.TID 0000.0001) %MON vort_a_mean                  =   8.2300000000001E-05
(PID.TID 0000.0001) %MON vort_a_sd                    =   7.1297555115504E-06
(PID.TID 0000.0001) %MON vort_p_mean                  =   8.3303658536586E-05
(PID.TID 0000.0001) %MON vort_p_sd                    =   1.7411470229288E-05
(PID.TID 0000.0001) %MON surfExpan_theta_mean         =  -5.5528723203807E-27
(PID.TID 0000.0001) %MON surfExpan_salt_mean          =  -8.3115985551380E-27
(PID.TID 0000.0001) // =======================================================
(PID.TID 0000.0001) // End MONITOR dynamic field statistics
(PID.TID 0000.0001) // =======================================================
 cg2d: Sum(rhs),rhsMax =  -6.21496890142699E-03  6.53904862288118E-10
 cg2d: Sum(rhs),rhsMax =  -6.22452689419014E-03  6.52900754009750E-10
 cg2d: Sum(rhs),rhsMax =  -6.23434754140467E-03  6.51872260518987E-10
 cg2d: Sum(rhs),rhsMax =  -6.24443610262088E-03  6.50819078671160E-10
 cg2d: Sum(rhs),rhsMax =  -6.25479790003764E-03  6.49740909436554E-10
 cg2d: Sum(rhs),rhsMax =  -6.26543834376901E-03  6.48637457982342E-10
 cg2d: Sum(rhs),rhsMax =  -6.27636292727933E-03  6.47508433753300E-10
 cg2d: Sum(rhs),rhsMax =  -6.28757720997116E-03  6.46353550551128E-10
 cg2d: Sum(rhs),rhsMax =  -6.29908686128397E-03  6.45172526614115E-10
 cg2d: Sum(rhs),rhsMax =  -6.31089760687010E-03  6.43965084694645E-10
 cg2d: Sum(rhs),rhsMax =  -6.32301530521729E-03  6.42730952136758E-10
 cg2d: Sum(rhs),rhsMax =  -6.33544586084933E-03  6.41469860952327E-10
 cg2d: Sum(rhs),rhsMax =  -6.34819532810120E-03  6.40181547896213E-10
 cg2d: Sum(rhs),rhsMax =  -6.36126982209570E-03  6.38865754540582E-10
 cg2d: Sum(rhs),rhsMax =  -6.37467558942049E-03  6.37522227348265E-10
 cg2d: Sum(rhs),rhsMax =  -6.38841897351487E-03  6.36150717744955E-10
(PID.TID 0000.0001)      cg2d_init_res =   2.57186179500599E-01
(PID.TID 0000.0001)      cg2d_iters(min,last) =      -1     550
(PID.TID 0000.0001)      cg2d_last_res =   8.99114350364991E-08
(PID.TID 0000.0001) // =======================================================
(PID.TID 0000.0001) // Begin MONITOR dynamic field statistics
(PID.TID 0000.0001) // =======================================================
(PID.TID 0000.0001) %MON time_tsnumber                =                  2144
(PID.TID 0000.0001) %MON time_secondsf                =   1.1577600000000E+07
(PID.TID 0000.0001) %MON dynstat_eta_max              =   6.2850713397284E-09
(PID.TID 0000.0001) %MON dynstat_eta_min              =  -5.9125841680317E-09
(PID.TID 0000.0001) %MON dynstat_eta_mean             =   3.9165232257987E-13
(PID.TID 0000.0001) %MON dynstat_eta_sd               =   2.4904451720815E-09
(PID.TID 0000.0001) %MON dynstat_eta_del2             =   3.1466314397557E-14
(PID.TID 0000.0001) %MON dynstat_uvel_max             =   4.1188268031392E-09
(PID.TID 0000.0001) %MON dynstat_uvel_min             =  -4.2974700285895E-09
(PID.TID 0000.0001) %MON dynstat_uvel_mean            =   1.8891483354576E-13
(PID.TID 0000.0001) %MON dynstat_uvel_sd              =   1.2605209080449E-09
(PID.TID 0000.0001) %MON dynstat_uvel_del2            =   8.3045923662376E-14
(PID.TID 0000.0001) %MON dynstat_vvel_max             =   7.6955840584238E-09
(PID.TID 0000.0001) %MON dynstat_vvel_min             =  -4.7168571989585E-09
(PID.TID 0000.0001) %MON dynstat_vvel_mean            =  -2.5931149869666E-14
(PID.TID 0000.0001) %MON dynstat_vvel_sd              =   2.3069231392784E-09
(PID.TID 0000.0001) %MON dynstat_vvel_del2            =   1.1003453367867E-13
(PID.TID 0000.0001) %MON dynstat_wvel_max             =   1.6860753817571E-14
(PID.TID 0000.0001) %MON dynstat_wvel_min             =  -8.9128793856474E-15
(PID.TID 0000.0001) %MON dynstat_wvel_mean            =   2.6148714755565E-29
(PID.TID 0000.0001) %MON dynstat_wvel_sd              =   6.0989813266248E-15
(PID.TID 0000.0001) %MON dynstat_wvel_del2            =   4.2199894783957E-20
(PID.TID 0000.0001) %MON dynstat_theta_max            =   2.0000000000000E+01
(PID.TID 0000.0001) %MON dynstat_theta_min            =   2.0000000000000E+01
(PID.TID 0000.0001) %MON dynstat_theta_mean           =   2.0000000000000E+01
(PID.TID 0000.0001) %MON dynstat_theta_sd             =   0.0000000000000E+00
(PID.TID 0000.0001) %MON dynstat_theta_del2           =   0.0000000000000E+00
(PID.TID 0000.0001) %MON dynstat_salt_max             =   3.0000000000000E+01
(PID.TID 0000.0001) %MON dynstat_salt_min             =   3.0000000000000E+01
(PID.TID 0000.0001) %MON dynstat_salt_mean            =   3.0000000000000E+01
(PID.TID 0000.0001) %MON dynstat_salt_sd              =   0.0000000000000E+00
(PID.TID 0000.0001) %MON dynstat_salt_del2            =   0.0000000000000E+00
(PID.TID 0000.0001) %MON trAdv_CFL_u_max              =   4.6491589180563E-09
(PID.TID 0000.0001) %MON trAdv_CFL_v_max              =   8.3181729799391E-09
(PID.TID 0000.0001) %MON trAdv_CFL_w_max              =   1.8231239521649E-14
(PID.TID 0000.0001) %MON advcfl_uvel_max              =   4.6412676308767E-09
(PID.TID 0000.0001) %MON advcfl_vvel_max              =   8.3112307830978E-09
(PID.TID 0000.0001) %MON advcfl_wvel_max              =   3.6419228245954E-14
(PID.TID 0000.0001) %MON advcfl_W_hf_max              =   0.0000000000000E+00
(PID.TID 0000.0001) %MON pe_b_mean                    =   6.0844732796735E-21
(PID.TID 0000.0001) %MON ke_max                       =   2.9648477399151E-17
(PID.TID 0000.0001) %MON ke_mean                      =   3.4413573268229E-18
(PID.TID 0000.0001) %MON ke_vol                       =   7.5645000000000E+15
(PID.TID 0000.0001) %MON vort_r_min                   =  -2.5356717715994E-13
(PID.TID 0000.0001) %MON vort_r_max                   =   1.9861840298612E-13
(PID.TID 0000.0001) %MON vort_a_mean                  =   8.2300000000000E-05
(PID.TID 0000.0001) %MON vort_a_sd                    =   7.1297555115616E-06
(PID.TID 0000.0001) %MON vort_p_mean                  =   8.3303658536585E-05
(PID.TID 0000.0001) %MON vort_p_sd                    =   1.7411470229384E-05
(PID.TID 0000.0001) %MON surfExpan_theta_mean         =   5.9865281070323E-28
(PID.TID 0000.0001) %MON surfExpan_salt_mean          =   9.1180137839328E-28
(PID.TID 0000.0001) // =======================================================
(PID.TID 0000.0001) // End MONITOR dynamic field statistics
(PID.TID 0000.0001) // =======================================================
 cg2d: Sum(rhs),rhsMax =  -6.40250643513657E-03  6.34750982190070E-10
 cg2d: Sum(rhs),rhsMax =  -6.41694456625636E-03  6.33322782247098E-10
 cg2d: Sum(rhs),rhsMax =  -6.43174005995455E-03  6.31865884652387E-10
 cg2d: Sum(rhs),rhsMax =  -6.44689975019610E-03  6.30380061383354E-10
 cg2d: Sum(rhs),rhsMax =  -6.46243059302816E-03  6.28865089725238E-10
 cg2d: Sum(rhs),rhsMax =  -6.47833970337283E-03  6.27320752337224E-10
 cg2d: Sum(rhs),rhsMax =  -6.49463430866289E-03  6.25746837317079E-10
 cg2d: Sum(rhs),rhsMax =  -6.51132178660376E-03  6.24143138264784E-10
 cg2d: Sum(rhs),rhsMax =  -6.52840969566935E-03  6.22509454344879E-10
 cg2d: Sum(rhs),rhsMax =  -6.54590571918515E-03  6.20845590347781E-10
 cg2d: Sum(rhs),rhsMax =  -6.56381770907723E-03  6.19151356749619E-10
 cg2d: Sum(rhs),rhsMax =  -6.58215370236430E-03  6.17426569771160E-10
 cg2d: Sum(rhs),rhsMax =  -6.60092189770179E-03  6.15671051435404E-10
 cg2d: Sum(rhs),rhsMax =  -6.62013066912194E-03  6.13884629623714E-10
 cg2d: Sum(rhs),rhsMax =  -6.63978860321002E-03  6.12067138131217E-10
 cg2d: Sum(rhs),rhsMax =  -6.65990445889008E-03  6.10218416720378E-10
(PID.TID 0000.0001)      cg2d_init_res =   2.69542978639542E-01
(PID.TID 0000.0001)      cg2d_iters(min,last) =      -1     550
(PID.TID 0000.0001)      cg2d_last_res =   9.20117848205487E-08
(PID.TID 0000.0001) // =======================================================
(PID.TID 0000.0001) // Begin MONITOR dynamic field statistics
(PID.TID 0000.0001) // =======================================================
(PID.TID 0000.0001) %MON time_tsnumber                =                  2160
(PID.TID 0000.0001) %MON time_secondsf                =   1.1664000000000E+07
(PID.TID 0000.0001) %MON dynstat_eta_max              =   6.6934800721343E-09
(PID.TID 0000.0001) %MON dynstat_eta_min              =  -5.7233126350191E-09
(PID.TID 0000.0001) %MON dynstat_eta_mean             =   3.9165223114628E-13
(PID.TID 0000.0001) %MON dynstat_eta_sd               =   2.5012213250582E-09
(PID.TID 0000.0001) %MON dynstat_eta_del2             =   3.0957000835731E-14
(PID.TID 0000.0001) %MON dynstat_uvel_max             =   3.5991495030137E-09
(PID.TID 0000.0001) %MON dynstat_uvel_min             =  -4.1488651787352E-09
(PID.TID 0000.0001) %MON dynstat_uvel_mean            =   1.4171656355856E-13
(PID.TID 0000.0001) %MON dynstat_uvel_sd              =   1.2342768036311E-09
(PID.TID 0000.0001) %MON dynstat_uvel_del2            =   8.3316019780073E-14
(PID.TID 0000.0001) %MON dynstat_vvel_max             =   7.5440067312473E-09
(PID.TID 0000.0001) %MON dynstat_vvel_min             =  -4.8116536788568E-09
(PID.TID 0000.0001) %MON dynstat_vvel_mean            =  -3.1922978060908E-14
(PID.TID 0000.0001) %MON dynstat_vvel_sd              =   2.2929172560178E-09
(PID.TID 0000.0001) %MON dynstat_vvel_del2            =   1.0634321606769E-13
(PID.TID 0000.0001) %MON dynstat_wvel_max             =   1.6384887743248E-14
(PID.TID 0000.0001) %MON dynstat_wvel_min             =  -7.9187361223809E-15
(PID.TID 0000.0001) %MON dynstat_wvel_mean            =   1.7938352476451E-28
(PID.TID 0000.0001) %MON dynstat_wvel_sd              =   6.0772760700227E-15
(PID.TID 0000.0001) %MON dynstat_wvel_del2            =   4.2118092910768E-20
(PID.TID 0000.0001) %MON dynstat_theta_max            =   2.0000000000000E+01
(PID.TID 0000.0001) %MON dynstat_theta_min            =   2.0000000000000E+01
(PID.TID 0000.0001) %MON dynstat_theta_mean           =   2.0000000000000E+01
(PID.TID 0000.0001) %MON dynstat_theta_sd             =   0.0000000000000E+00
(PID.TID 0000.0001) %MON dynstat_theta_del2           =   0.0000000000000E+00
(PID.TID 0000.0001) %MON dynstat_salt_max             =   3.0000000000000E+01
(PID.TID 0000.0001) %MON dynstat_salt_min             =   3.0000000000000E+01
(PID.TID 0000.0001) %MON dynstat_salt_mean            =   3.0000000000000E+01
(PID.TID 0000.0001) %MON dynstat_salt_sd              =   0.0000000000000E+00
(PID.TID 0000.0001) %MON dynstat_salt_del2            =   0.0000000000000E+00
(PID.TID 0000.0001) %MON trAdv_CFL_u_max              =   4.4922377823906E-09
(PID.TID 0000.0001) %MON trAdv_CFL_v_max              =   8.1594389669955E-09
(PID.TID 0000.0001) %MON trAdv_CFL_w_max              =   1.7736203196517E-14
(PID.TID 0000.0001) %MON advcfl_uvel_max              =   4.4807743930341E-09
(PID.TID 0000.0001) %MON advcfl_vvel_max              =   8.1475272697471E-09
(PID.TID 0000.0001) %MON advcfl_wvel_max              =   3.5391357525416E-14
(PID.TID 0000.0001) %MON advcfl_W_hf_max              =   0.0000000000000E+00
(PID.TID 0000.0001) %MON pe_b_mean                    =   6.1372422131815E-21
(PID.TID 0000.0001) %MON ke_max                       =   2.8455375601850E-17
(PID.TID 0000.0001) %MON ke_mean                      =   3.3766720610713E-18
(PID.TID 0000.0001) %MON ke_vol                       =   7.5645000000000E+15
(PID.TID 0000.0001) %MON vort_r_min                   =  -2.4794964038920E-13
(PID.TID 0000.0001) %MON vort_r_max                   =   2.1794985707534E-13
(PID.TID 0000.0001) %MON vort_a_mean                  =   8.2300000000000E-05
(PID.TID 0000.0001) %MON vort_a_sd                    =   7.1297555115598E-06
(PID.TID 0000.0001) %MON vort_p_mean                  =   8.3303658536585E-05
(PID.TID 0000.0001) %MON vort_p_sd                    =   1.7411470229480E-05
(PID.TID 0000.0001) %MON surfExpan_theta_mean         =   3.6022767674886E-27
(PID.TID 0000.0001) %MON surfExpan_salt_mean          =   5.3477502667410E-27
(PID.TID 0000.0001) // =======================================================
(PID.TID 0000.0001) // End MONITOR dynamic field statistics
(PID.TID 0000.0001) // =======================================================
 cg2d: Sum(rhs),rhsMax =  -6.68048719865927E-03  6.08338311173937E-10
 cg2d: Sum(rhs),rhsMax =  -6.70154599429684E-03  6.06426673345881E-10
 cg2d: Sum(rhs),rhsMax =  -6.72309024533981E-03  6.04483361211752E-10
 cg2d: Sum(rhs),rhsMax =  -6.74512956622022E-03  6.02508238917211E-10
 cg2d: Sum(rhs),rhsMax =  -6.76767380020164E-03  6.00501176825609E-10
 cg2d: Sum(rhs),rhsMax =  -6.79073303632713E-03  5.98462051563983E-10
 cg2d: Sum(rhs),rhsMax =  -6.81431762654588E-03  5.96390746067946E-10
 cg2d: Sum(rhs),rhsMax =  -6.82701029236991E-03  5.95281938519008E-10
 cg2d: Sum(rhs),rhsMax =  -6.82278299691323E-03  5.95650758310454E-10
 cg2d: Sum(rhs),rhsMax =  -6.81927457730848E-03  5.95957204274182E-10
 cg2d: Sum(rhs),rhsMax =  -6.81648729593036E-03  5.96200885571288E-10
 cg2d: Sum(rhs),rhsMax =  -6.81442369208559E-03  5.96381424659122E-10
 cg2d: Sum(rhs),rhsMax =  -6.81308661845408E-03  5.96498457385561E-10
 cg2d: Sum(rhs),rhsMax =  -6.81247922961258E-03  5.96551633080290E-10
 cg2d: Sum(rhs),rhsMax =  -6.81260498239326E-03  5.96540614643131E-10
 cg2d: Sum(rhs),rhsMax =  -6.81346764592238E-03  5.96465078629515E-10
(PID.TID 0000.0001)      cg2d_init_res =   2.78686192645438E-01
(PID.TID 0000.0001)      cg2d_iters(min,last) =      -1     550
(PID.TID 0000.0001)      cg2d_last_res =   8.94493773895402E-08
(PID.TID 0000.0001) // =======================================================
(PID.TID 0000.0001) // Begin MONITOR dynamic field statistics
(PID.TID 0000.0001) // =======================================================
(PID.TID 0000.0001) %MON time_tsnumber                =                  2176
(PID.TID 0000.0001) %MON time_secondsf                =   1.1750400000000E+07
(PID.TID 0000.0001) %MON dynstat_eta_max              =   6.9861972895204E-09
(PID.TID 0000.0001) %MON dynstat_eta_min              =  -5.3821551462695E-09
(PID.TID 0000.0001) %MON dynstat_eta_mean             =   3.9165215033329E-13
(PID.TID 0000.0001) %MON dynstat_eta_sd               =   2.5135094582710E-09
(PID.TID 0000.0001) %MON dynstat_eta_del2             =   3.0415443814276E-14
(PID.TID 0000.0001) %MON dynstat_uvel_max             =   3.5389046574449E-09
(PID.TID 0000.0001) %MON dynstat_uvel_min             =  -3.9522285393256E-09
(PID.TID 0000.0001) %MON dynstat_uvel_mean            =   8.5943283546085E-14
(PID.TID 0000.0001) %MON dynstat_uvel_sd              =   1.2173765617153E-09
(PID.TID 0000.0001) %MON dynstat_uvel_del2            =   8.4429915083175E-14
(PID.TID 0000.0001) %MON dynstat_vvel_max             =   7.3087341028544E-09
(PID.TID 0000.0001) %MON dynstat_vvel_min             =  -5.1836020119057E-09
(PID.TID 0000.0001) %MON dynstat_vvel_mean            =  -3.6764048559770E-14
(PID.TID 0000.0001) %MON dynstat_vvel_sd              =   2.2745655417628E-09
(PID.TID 0000.0001) %MON dynstat_vvel_del2            =   1.0304156382420E-13
(PID.TID 0000.0001) %MON dynstat_wvel_max             =   1.5626646416300E-14
(PID.TID 0000.0001) %MON dynstat_wvel_min             =  -6.7777582885009E-15
(PID.TID 0000.0001) %MON dynstat_wvel_mean            =  -4.2528116512768E-28
(PID.TID 0000.0001) %MON dynstat_wvel_sd              =   6.0566680513199E-15
(PID.TID 0000.0001) %MON dynstat_wvel_del2            =   4.2233957844219E-20
(PID.TID 0000.0001) %MON dynstat_theta_max            =   2.0000000000000E+01
(PID.TID 0000.0001) %MON dynstat_theta_min            =   2.0000000000000E+01
(PID.TID 0000.0001) %MON dynstat_theta_mean           =   2.0000000000000E+01
(PID.TID 0000.0001) %MON dynstat_theta_sd             =   0.0000000000000E+00
(PID.TID 0000.0001) %MON dynstat_theta_del2           =   0.0000000000000E+00
(PID.TID 0000.0001) %MON dynstat_salt_max             =   3.0000000000000E+01
(PID.TID 0000.0001) %MON dynstat_salt_min             =   3.0000000000000E+01
(PID.TID 0000.0001) %MON dynstat_salt_mean            =   3.0000000000000E+01
(PID.TID 0000.0001) %MON dynstat_salt_sd              =   0.0000000000000E+00
(PID.TID 0000.0001) %MON dynstat_salt_del2            =   0.0000000000000E+00
(PID.TID 0000.0001) %MON trAdv_CFL_u_max              =   4.2833992554478E-09
(PID.TID 0000.0001) %MON trAdv_CFL_v_max              =   7.9129456074985E-09
(PID.TID 0000.0001) %MON trAdv_CFL_w_max              =   1.6936662338396E-14
(PID.TID 0000.0001) %MON advcfl_uvel_max              =   4.2684068224716E-09
(PID.TID 0000.0001) %MON advcfl_vvel_max              =   7.8934328310828E-09
(PID.TID 0000.0001) %MON advcfl_wvel_max              =   3.3753556259208E-14
(PID.TID 0000.0001) %MON advcfl_W_hf_max              =   0.0000000000000E+00
(PID.TID 0000.0001) %MON pe_b_mean                    =   6.1976930811551E-21
(PID.TID 0000.0001) %MON ke_max                       =   2.6768418041448E-17
(PID.TID 0000.0001) %MON ke_mean                      =   3.3142993005163E-18
(PID.TID 0000.0001) %MON ke_vol                       =   7.5645000000000E+15
(PID.TID 0000.0001) %MON vort_r_min                   =  -2.5366382794217E-13
(PID.TID 0000.0001) %MON vort_r_max                   =   2.3435745724973E-13
(PID.TID 0000.0001) %MON vort_a_mean                  =   8.2300000000000E-05
(PID.TID 0000.0001) %MON vort_a_sd                    =   7.1297555115591E-06
(PID.TID 0000.0001) %MON vort_p_mean                  =   8.3303658536585E-05
(PID.TID 0000.0001) %MON vort_p_sd                    =   1.7411470229579E-05
(PID.TID 0000.0001) %MON surfExpan_theta_mean         =  -8.3802592283613E-27
(PID.TID 0000.0001) %MON surfExpan_salt_mean          =  -1.2671560262795E-26
(PID.TID 0000.0001) // =======================================================
(PID.TID 0000.0001) // End MONITOR dynamic field statistics
(PID.TID 0000.0001) // =======================================================
 cg2d: Sum(rhs),rhsMax =  -6.81507131365089E-03  5.96324715332995E-10
 cg2d: Sum(rhs),rhsMax =  -6.81742044176420E-03  5.96119228864764E-10
 cg2d: Sum(rhs),rhsMax =  -6.82051977615278E-03  5.95848337230166E-10
 cg2d: Sum(rhs),rhsMax =  -6.82437444907469E-03  5.95511772402268E-10
 cg2d: Sum(rhs),rhsMax =  -6.82898991480102E-03  5.95109280392351E-10
 cg2d: Sum(rhs),rhsMax =  -6.83437202649209E-03  5.94640621317427E-10
 cg2d: Sum(rhs),rhsMax =  -6.84052698307534E-03  5.94105569400278E-10
 cg2d: Sum(rhs),rhsMax =  -6.84746138313664E-03  5.93503913408402E-10
 cg2d: Sum(rhs),rhsMax =  -6.85518222455123E-03  5.92835455812594E-10
 cg2d: Sum(rhs),rhsMax =  -6.86369689870478E-03  5.92100014015349E-10
 cg2d: Sum(rhs),rhsMax =  -6.87301321474567E-03  5.91297419388939E-10
 cg2d: Sum(rhs),rhsMax =  -6.88313942263956E-03  5.90427518089794E-10
 cg2d: Sum(rhs),rhsMax =  -6.89408421504592E-03  5.89490170458458E-10
 cg2d: Sum(rhs),rhsMax =  -6.90585671747878E-03  5.88485251655271E-10
 cg2d: Sum(rhs),rhsMax =  -6.91846655158412E-03  5.87412651152887E-10
 cg2d: Sum(rhs),rhsMax =  -6.93171324436494E-03  5.86290081910006E-10
(PID.TID 0000.0001)      cg2d_init_res =   2.87748099864822E-01
(PID.TID 0000.0001)      cg2d_iters(min,last) =      -1     549
(PID.TID 0000.0001)      cg2d_last_res =   9.66673986119661E-08
(PID.TID 0000.0001) // =======================================================
(PID.TID 0000.0001) // Begin MONITOR dynamic field statistics
(PID.TID 0000.0001) // =======================================================
(PID.TID 0000.0001) %MON time_tsnumber                =                  2192
(PID.TID 0000.0001) %MON time_secondsf                =   1.1836800000000E+07
(PID.TID 0000.0001) %MON dynstat_eta_max              =   7.1526988803631E-09
(PID.TID 0000.0001) %MON dynstat_eta_min              =  -4.9013263411653E-09
(PID.TID 0000.0001) %MON dynstat_eta_mean             =   3.9165207501178E-13
(PID.TID 0000.0001) %MON dynstat_eta_sd               =   2.5256099601480E-09
(PID.TID 0000.0001) %MON dynstat_eta_del2             =   2.9847163012632E-14
(PID.TID 0000.0001) %MON dynstat_uvel_max             =   3.4920124958321E-09
(PID.TID 0000.0001) %MON dynstat_uvel_min             =  -4.2859548099209E-09
(PID.TID 0000.0001) %MON dynstat_uvel_mean            =   2.4595783352748E-14
(PID.TID 0000.0001) %MON dynstat_uvel_sd              =   1.2137294791651E-09
(PID.TID 0000.0001) %MON dynstat_uvel_del2            =   8.6015249057208E-14
(PID.TID 0000.0001) %MON dynstat_vvel_max             =   7.0049538620217E-09
(PID.TID 0000.0001) %MON dynstat_vvel_min             =  -5.4885529609351E-09
(PID.TID 0000.0001) %MON dynstat_vvel_mean            =  -4.0283873048958E-14
(PID.TID 0000.0001) %MON dynstat_vvel_sd              =   2.2498797678432E-09
(PID.TID 0000.0001) %MON dynstat_vvel_del2            =   1.0070986433573E-13
(PID.TID 0000.0001) %MON dynstat_wvel_max             =   1.4617152560015E-14
(PID.TID 0000.0001) %MON dynstat_wvel_min             =  -7.9339496084074E-15
(PID.TID 0000.0001) %MON dynstat_wvel_mean            =   3.3708819454103E-29
(PID.TID 0000.0001) %MON dynstat_wvel_sd              =   6.0409886720865E-15
(PID.TID 0000.0001) %MON dynstat_wvel_del2            =   4.2558983211550E-20
(PID.TID 0000.0001) %MON dynstat_theta_max            =   2.0000000000000E+01
(PID.TID 0000.0001) %MON dynstat_theta_min            =   2.0000000000000E+01
(PID.TID 0000.0001) %MON dynstat_theta_mean           =   2.0000000000000E+01
(PID.TID 0000.0001) %MON dynstat_theta_sd             =   0.0000000000000E+00
(PID.TID 0000.0001) %MON dynstat_theta_del2           =   0.0000000000000E+00
(PID.TID 0000.0001) %MON dynstat_salt_max             =   3.0000000000000E+01
(PID.TID 0000.0001) %MON dynstat_salt_min             =   3.0000000000000E+01
(PID.TID 0000.0001) %MON dynstat_salt_mean            =   3.0000000000000E+01
(PID.TID 0000.0001) %MON dynstat_salt_sd              =   0.0000000000000E+00
(PID.TID 0000.0001) %MON dynstat_salt_del2            =   0.0000000000000E+00
(PID.TID 0000.0001) %MON trAdv_CFL_u_max              =   4.6083518809693E-09
(PID.TID 0000.0001) %MON trAdv_CFL_v_max              =   7.5883419406147E-09
(PID.TID 0000.0001) %MON trAdv_CFL_w_max              =   1.5861258326155E-14
(PID.TID 0000.0001) %MON advcfl_uvel_max              =   4.6288311947146E-09
(PID.TID 0000.0001) %MON advcfl_vvel_max              =   7.5653501709834E-09
(PID.TID 0000.0001) %MON advcfl_wvel_max              =   3.1573049529632E-14
(PID.TID 0000.0001) %MON advcfl_W_hf_max              =   0.0000000000000E+00
(PID.TID 0000.0001) %MON pe_b_mean                    =   6.2575104135307E-21
(PID.TID 0000.0001) %MON ke_max                       =   2.4736343207172E-17
(PID.TID 0000.0001) %MON ke_mean                      =   3.2542663903256E-18
(PID.TID 0000.0001) %MON ke_vol                       =   7.5645000000000E+15
(PID.TID 0000.0001) %MON vort_r_min                   =  -2.5318891498869E-13
(PID.TID 0000.0001) %MON vort_r_max                   =   2.4696000776760E-13
(PID.TID 0000.0001) %MON vort_a_mean                  =   8.2300000000000E-05
(PID.TID 0000.0001) %MON vort_a_sd                    =   7.1297555115578E-06
(PID.TID 0000.0001) %MON vort_p_mean                  =   8.3303658536585E-05
(PID.TID 0000.0001) %MON vort_p_sd                    =   1.7411470229676E-05
(PID.TID 0000.0001) %MON surfExpan_theta_mean         =   6.8961661333811E-28
(PID.TID 0000.0001) %MON surfExpan_salt_mean          =   1.0675604861056E-27
(PID.TID 0000.0001) // =======================================================
(PID.TID 0000.0001) // End MONITOR dynamic field statistics
(PID.TID 0000.0001) // =======================================================
 cg2d: Sum(rhs),rhsMax =  -6.94547922753014E-03  5.85128044717690E-10
 cg2d: Sum(rhs),rhsMax =  -6.96011295082777E-03  5.83897798531946E-10
 cg2d: Sum(rhs),rhsMax =  -6.97562566746399E-03  5.82599292649104E-10
 cg2d: Sum(rhs),rhsMax =  -6.99202916113131E-03  5.81232491519212E-10
 cg2d: Sum(rhs),rhsMax =  -7.00933578063737E-03  5.79797373961491E-10
 cg2d: Sum(rhs),rhsMax =  -7.02755846277538E-03  5.78293933959820E-10
 cg2d: Sum(rhs),rhsMax =  -7.04671074403821E-03  5.76722179927812E-10
 cg2d: Sum(rhs),rhsMax =  -7.06680677423194E-03  5.75082135437709E-10
 cg2d: Sum(rhs),rhsMax =  -7.08786137762218E-03  5.73373838589916E-10
 cg2d: Sum(rhs),rhsMax =  -7.10989001451645E-03  5.71597342411419E-10
 cg2d: Sum(rhs),rhsMax =  -7.13290886263544E-03  5.69752714815170E-10
 cg2d: Sum(rhs),rhsMax =  -7.15693482579420E-03  5.67840038458315E-10
 cg2d: Sum(rhs),rhsMax =  -7.18198552601951E-03  5.65859410848300E-10
 cg2d: Sum(rhs),rhsMax =  -7.20807939991173E-03  5.63810944279185E-10
 cg2d: Sum(rhs),rhsMax =  -7.23523567178963E-03  5.61694765843023E-10
 cg2d: Sum(rhs),rhsMax =  -7.26347441740925E-03  5.59511017413340E-10
(PID.TID 0000.0001)      cg2d_init_res =   3.06769627111192E-01
(PID.TID 0000.0001)      cg2d_iters(min,last) =      -1     550
(PID.TID 0000.0001)      cg2d_last_res =   9.42906714279861E-08
(PID.TID 0000.0001) // =======================================================
(PID.TID 0000.0001) // Begin MONITOR dynamic field statistics
(PID.TID 0000.0001) // =======================================================
(PID.TID 0000.0001) %MON time_tsnumber                =                  2208
(PID.TID 0000.0001) %MON time_secondsf                =   1.1923200000000E+07
(PID.TID 0000.0001) %MON dynstat_eta_max              =   7.1874840790719E-09
(PID.TID 0000.0001) %MON dynstat_eta_min              =  -4.4628738243415E-09
(PID.TID 0000.0001) %MON dynstat_eta_mean             =   3.9165200131566E-13
(PID.TID 0000.0001) %MON dynstat_eta_sd               =   2.5361872117215E-09
(PID.TID 0000.0001) %MON dynstat_eta_del2             =   2.9266050107514E-14
(PID.TID 0000.0001) %MON dynstat_uvel_max             =   3.3971972142425E-09
(PID.TID 0000.0001) %MON dynstat_uvel_min             =  -4.5676802863288E-09
(PID.TID 0000.0001) %MON dynstat_uvel_mean            =  -3.9021592557969E-14
(PID.TID 0000.0001) %MON dynstat_uvel_sd              =   1.2246299907655E-09
(PID.TID 0000.0001) %MON dynstat_uvel_del2            =   8.7619473158423E-14
(PID.TID 0000.0001) %MON dynstat_vvel_max             =   6.6336924192887E-09
(PID.TID 0000.0001) %MON dynstat_vvel_min             =  -5.7191748210816E-09
(PID.TID 0000.0001) %MON dynstat_vvel_mean            =  -4.2369570455046E-14
(PID.TID 0000.0001) %MON dynstat_vvel_sd              =   2.2179697099194E-09
(PID.TID 0000.0001) %MON dynstat_vvel_del2            =   9.9907335422831E-14
(PID.TID 0000.0001) %MON dynstat_wvel_max             =   1.4095556027938E-14
(PID.TID 0000.0001) %MON dynstat_wvel_min             =  -9.2239481941370E-15
(PID.TID 0000.0001) %MON dynstat_wvel_mean            =   2.0733901381661E-28
(PID.TID 0000.0001) %MON dynstat_wvel_sd              =   6.0324271916831E-15
(PID.TID 0000.0001) %MON dynstat_wvel_del2            =   4.3057593501988E-20
(PID.TID 0000.0001) %MON dynstat_theta_max            =   2.0000000000000E+01
(PID.TID 0000.0001) %MON dynstat_theta_min            =   2.0000000000000E+01
(PID.TID 0000.0001) %MON dynstat_theta_mean           =   2.0000000000000E+01
(PID.TID 0000.0001) %MON dynstat_theta_sd             =   0.0000000000000E+00
(PID.TID 0000.0001) %MON dynstat_theta_del2           =   0.0000000000000E+00
(PID.TID 0000.0001) %MON dynstat_salt_max             =   3.0000000000000E+01
(PID.TID 0000.0001) %MON dynstat_salt_min             =   3.0000000000000E+01
(PID.TID 0000.0001) %MON dynstat_salt_mean            =   3.0000000000000E+01
(PID.TID 0000.0001) %MON dynstat_salt_sd              =   0.0000000000000E+00
(PID.TID 0000.0001) %MON dynstat_salt_del2            =   0.0000000000000E+00
(PID.TID 0000.0001) %MON trAdv_CFL_u_max              =   4.9153596479613E-09
(PID.TID 0000.0001) %MON trAdv_CFL_v_max              =   7.1900545721214E-09
(PID.TID 0000.0001) %MON trAdv_CFL_w_max              =   1.5198158457141E-14
(PID.TID 0000.0001) %MON advcfl_uvel_max              =   4.9330947092351E-09
(PID.TID 0000.0001) %MON advcfl_vvel_max              =   7.1643878128318E-09
(PID.TID 0000.0001) %MON advcfl_wvel_max              =   3.0446401020345E-14
(PID.TID 0000.0001) %MON advcfl_W_hf_max              =   0.0000000000000E+00
(PID.TID 0000.0001) %MON pe_b_mean                    =   6.3100330574913E-21
(PID.TID 0000.0001) %MON ke_max                       =   2.2403288713894E-17
(PID.TID 0000.0001) %MON ke_mean                      =   3.1965071578689E-18
(PID.TID 0000.0001) %MON ke_vol                       =   7.5645000000000E+15
(PID.TID 0000.0001) %MON vort_r_min                   =  -2.4570423947069E-13
(PID.TID 0000.0001) %MON vort_r_max                   =   2.5541663802953E-13
(PID.TID 0000.0001) %MON vort_a_mean                  =   8.2300000000000E-05
(PID.TID 0000.0001) %MON vort_a_sd                    =   7.1297555115577E-06
(PID.TID 0000.0001) %MON vort_p_mean                  =   8.3303658536585E-05
(PID.TID 0000.0001) %MON vort_p_sd                    =   1.7411470229769E-05
(PID.TID 0000.0001) %MON surfExpan_theta_mean         =   4.1388821333201E-27
(PID.TID 0000.0001) %MON surfExpan_salt_mean          =   6.1890008382406E-27
(PID.TID 0000.0001) // =======================================================
(PID.TID 0000.0001) // End MONITOR dynamic field statistics
(PID.TID 0000.0001) // =======================================================
 cg2d: Sum(rhs),rhsMax =  -7.29281658069681E-03  5.57259855626863E-10
 cg2d: Sum(rhs),rhsMax =  -7.32328401286512E-03  5.54941451862197E-10
 cg2d: Sum(rhs),rhsMax =  -7.35489954531836E-03  5.52555992215242E-10
 cg2d: Sum(rhs),rhsMax =  -7.38768697182232E-03  5.50103677472177E-10
 cg2d: Sum(rhs),rhsMax =  -7.42167111744224E-03  5.47584723078702E-10
 cg2d: Sum(rhs),rhsMax =  -7.45687789234966E-03  5.44999359106586E-10
 cg2d: Sum(rhs),rhsMax =  -7.49333434936248E-03  5.42347830216844E-10
 cg2d: Sum(rhs),rhsMax =  -7.53106869515952E-03  5.39630395619619E-10
 cg2d: Sum(rhs),rhsMax =  -7.57011036512780E-03  5.36847329031050E-10
 cg2d: Sum(rhs),rhsMax =  -7.61049010046646E-03  5.33998918818869E-10
 cg2d: Sum(rhs),rhsMax =  -7.65223998042014E-03  5.31085467190695E-10
 cg2d: Sum(rhs),rhsMax =  -7.69539347831150E-03  5.28107291196163E-10
 cg2d: Sum(rhs),rhsMax =  -7.73998553938658E-03  5.25064722266965E-10
 cg2d: Sum(rhs),rhsMax =  -7.78605269160665E-03  5.21958105710528E-10
 cg2d: Sum(rhs),rhsMax =  -7.83363306969551E-03  5.18787801358729E-10
 cg2d: Sum(rhs),rhsMax =  -7.87335219797986E-03  5.16170639391335E-10
(PID.TID 0000.0001)      cg2d_init_res =   3.38414856052995E-01
(PID.TID 0000.0001)      cg2d_iters(min,last) =      -1     552
(PID.TID 0000.0001)      cg2d_last_res =   9.30957830821217E-08
(PID.TID 0000.0001) // =======================================================
(PID.TID 0000.0001) // Begin MONITOR dynamic field statistics
(PID.TID 0000.0001) // =======================================================
(PID.TID 0000.0001) %MON time_tsnumber                =                  2224
(PID.TID 0000.0001) %MON time_secondsf                =   1.2009600000000E+07
(PID.TID 0000.0001) %MON dynstat_eta_max              =   7.0912964350956E-09
(PID.TID 0000.0001) %MON dynstat_eta_min              =  -4.0743217141753E-09
(PID.TID 0000.0001) %MON dynstat_eta_mean             =   3.9165193248140E-13
(PID.TID 0000.0001) %MON dynstat_eta_sd               =   2.5444339218294E-09
(PID.TID 0000.0001) %MON dynstat_eta_del2             =   2.8694022379767E-14
(PID.TID 0000.0001) %MON dynstat_uvel_max             =   3.2576275981571E-09
(PID.TID 0000.0001) %MON dynstat_uvel_min             =  -4.7904672945924E-09
(PID.TID 0000.0001) %MON dynstat_uvel_mean            =  -1.0148249046970E-13
(PID.TID 0000.0001) %MON dynstat_uvel_sd              =   1.2481679903331E-09
(PID.TID 0000.0001) %MON dynstat_uvel_del2            =   8.8810677093524E-14
(PID.TID 0000.0001) %MON dynstat_vvel_max             =   6.2152367718316E-09
(PID.TID 0000.0001) %MON dynstat_vvel_min             =  -5.8701887756111E-09
(PID.TID 0000.0001) %MON dynstat_vvel_mean            =  -4.2970671268160E-14
(PID.TID 0000.0001) %MON dynstat_vvel_sd              =   2.1793113834671E-09
(PID.TID 0000.0001) %MON dynstat_vvel_del2            =   1.0100558596652E-13
(PID.TID 0000.0001) %MON dynstat_wvel_max             =   1.4367813793714E-14
(PID.TID 0000.0001) %MON dynstat_wvel_min             =  -1.0453522508724E-14
(PID.TID 0000.0001) %MON dynstat_wvel_mean            =   1.7839436317113E-28
(PID.TID 0000.0001) %MON dynstat_wvel_sd              =   6.0310511211881E-15
(PID.TID 0000.0001) %MON dynstat_wvel_del2            =   4.3664768278650E-20
(PID.TID 0000.0001) %MON dynstat_theta_max            =   2.0000000000000E+01
(PID.TID 0000.0001) %MON dynstat_theta_min            =   2.0000000000000E+01
(PID.TID 0000.0001) %MON dynstat_theta_mean           =   2.0000000000000E+01
(PID.TID 0000.0001) %MON dynstat_theta_sd             =   0.0000000000000E+00
(PID.TID 0000.0001) %MON dynstat_theta_del2           =   0.0000000000000E+00
(PID.TID 0000.0001) %MON dynstat_salt_max             =   3.0000000000000E+01
(PID.TID 0000.0001) %MON dynstat_salt_min             =   3.0000000000000E+01
(PID.TID 0000.0001) %MON dynstat_salt_mean            =   3.0000000000000E+01
(PID.TID 0000.0001) %MON dynstat_salt_sd              =   0.0000000000000E+00
(PID.TID 0000.0001) %MON dynstat_salt_del2            =   0.0000000000000E+00
(PID.TID 0000.0001) %MON trAdv_CFL_u_max              =   5.1612863146189E-09
(PID.TID 0000.0001) %MON trAdv_CFL_v_max              =   6.7425033075848E-09
(PID.TID 0000.0001) %MON trAdv_CFL_w_max              =   1.5506669828591E-14
(PID.TID 0000.0001) %MON advcfl_uvel_max              =   5.1737046781598E-09
(PID.TID 0000.0001) %MON advcfl_vvel_max              =   6.7124557135781E-09
(PID.TID 0000.0001) %MON advcfl_wvel_max              =   3.1034477794423E-14
(PID.TID 0000.0001) %MON advcfl_W_hf_max              =   0.0000000000000E+00
(PID.TID 0000.0001) %MON pe_b_mean                    =   6.3511353973644E-21
(PID.TID 0000.0001) %MON ke_max                       =   1.9897376425059E-17
(PID.TID 0000.0001) %MON ke_mean                      =   3.1408409661279E-18
(PID.TID 0000.0001) %MON ke_vol                       =   7.5645000000000E+15
(PID.TID 0000.0001) %MON vort_r_min                   =  -2.3124237089657E-13
(PID.TID 0000.0001) %MON vort_r_max                   =   2.5910535774961E-13
(PID.TID 0000.0001) %MON vort_a_mean                  =   8.2300000000000E-05
(PID.TID 0000.0001) %MON vort_a_sd                    =   7.1297555115661E-06
(PID.TID 0000.0001) %MON vort_p_mean                  =   8.3303658536585E-05
(PID.TID 0000.0001) %MON vort_p_sd                    =   1.7411470229858E-05
(PID.TID 0000.0001) %MON surfExpan_theta_mean         =   3.7408275966188E-27
(PID.TID 0000.0001) %MON surfExpan_salt_mean          =   5.4109577699555E-27
(PID.TID 0000.0001) // =======================================================
(PID.TID 0000.0001) // End MONITOR dynamic field statistics
(PID.TID 0000.0001) // =======================================================
 cg2d: Sum(rhs),rhsMax =  -7.87805529971414E-03  5.15862487168069E-10
 cg2d: Sum(rhs),rhsMax =  -7.88370194407389E-03  5.15492999624759E-10
 cg2d: Sum(rhs),rhsMax =  -7.89029349742840E-03  5.15062351853728E-10
 cg2d: Sum(rhs),rhsMax =  -7.89650978144375E-03  5.14656879809287E-10
 cg2d: Sum(rhs),rhsMax =  -7.90270071685353E-03  5.14253695174748E-10
 cg2d: Sum(rhs),rhsMax =  -7.90984329389754E-03  5.13789319906947E-10
 cg2d: Sum(rhs),rhsMax =  -7.91793954728319E-03  5.13263954949075E-10
 cg2d: Sum(rhs),rhsMax =  -7.92699203537374E-03  5.12677811389390E-10
 cg2d: Sum(rhs),rhsMax =  -7.93700381989343E-03  5.12031110651647E-10
 cg2d: Sum(rhs),rhsMax =  -7.94797850896306E-03  5.11324083982317E-10
 cg2d: Sum(rhs),rhsMax =  -7.95868310087885E-03  5.10636336892896E-10
 cg2d: Sum(rhs),rhsMax =  -7.96931324728496E-03  5.09955200982263E-10
 cg2d: Sum(rhs),rhsMax =  -7.98091573778366E-03  5.09213833018856E-10
 cg2d: Sum(rhs),rhsMax =  -7.99349490086230E-03  5.08412490089809E-10
 cg2d: Sum(rhs),rhsMax =  -8.00705561157271E-03  5.07551439274304E-10
 cg2d: Sum(rhs),rhsMax =  -8.02160328910043E-03  5.06630957580135E-10
(PID.TID 0000.0001)      cg2d_init_res =   3.50213629543249E-01
(PID.TID 0000.0001)      cg2d_iters(min,last) =      -1     550
(PID.TID 0000.0001)      cg2d_last_res =   9.69436318471754E-08
(PID.TID 0000.0001) // =======================================================
(PID.TID 0000.0001) // Begin MONITOR dynamic field statistics
(PID.TID 0000.0001) // =======================================================
(PID.TID 0000.0001) %MON time_tsnumber                =                  2240
(PID.TID 0000.0001) %MON time_secondsf                =   1.2096000000000E+07
(PID.TID 0000.0001) %MON dynstat_eta_max              =   6.8832202544109E-09
(PID.TID 0000.0001) %MON dynstat_eta_min              =  -4.0167058321697E-09
(PID.TID 0000.0001) %MON dynstat_eta_mean             =   3.9165186604828E-13
(PID.TID 0000.0001) %MON dynstat_eta_sd               =   2.5500876404742E-09
(PID.TID 0000.0001) %MON dynstat_eta_del2             =   2.8159246189620E-14
(PID.TID 0000.0001) %MON dynstat_uvel_max             =   3.0784989500005E-09
(PID.TID 0000.0001) %MON dynstat_uvel_min             =  -4.9353903959418E-09
(PID.TID 0000.0001) %MON dynstat_uvel_mean            =  -1.5942560678117E-13
(PID.TID 0000.0001) %MON dynstat_uvel_sd              =   1.2796508221259E-09
(PID.TID 0000.0001) %MON dynstat_uvel_del2            =   8.9254088401399E-14
(PID.TID 0000.0001) %MON dynstat_vvel_max             =   5.7609140901543E-09
(PID.TID 0000.0001) %MON dynstat_vvel_min             =  -5.9378517440226E-09
(PID.TID 0000.0001) %MON dynstat_vvel_mean            =  -4.2100769732271E-14
(PID.TID 0000.0001) %MON dynstat_vvel_sd              =   2.1357967015326E-09
(PID.TID 0000.0001) %MON dynstat_vvel_del2            =   1.0404707520712E-13
(PID.TID 0000.0001) %MON dynstat_wvel_max             =   1.4395852399596E-14
(PID.TID 0000.0001) %MON dynstat_wvel_min             =  -1.1571131007804E-14
(PID.TID 0000.0001) %MON dynstat_wvel_mean            =   3.6880870086964E-28
(PID.TID 0000.0001) %MON dynstat_wvel_sd              =   6.0348786440353E-15
(PID.TID 0000.0001) %MON dynstat_wvel_del2            =   4.4313897909852E-20
(PID.TID 0000.0001) %MON dynstat_theta_max            =   2.0000000000000E+01
(PID.TID 0000.0001) %MON dynstat_theta_min            =   2.0000000000000E+01
(PID.TID 0000.0001) %MON dynstat_theta_mean           =   2.0000000000000E+01
(PID.TID 0000.0001) %MON dynstat_theta_sd             =   0.0000000000000E+00
(PID.TID 0000.0001) %MON dynstat_theta_del2           =   0.0000000000000E+00
(PID.TID 0000.0001) %MON dynstat_salt_max             =   3.0000000000000E+01
(PID.TID 0000.0001) %MON dynstat_salt_min             =   3.0000000000000E+01
(PID.TID 0000.0001) %MON dynstat_salt_mean            =   3.0000000000000E+01
(PID.TID 0000.0001) %MON dynstat_salt_sd              =   0.0000000000000E+00
(PID.TID 0000.0001) %MON dynstat_salt_del2            =   0.0000000000000E+00
(PID.TID 0000.0001) %MON trAdv_CFL_u_max              =   5.3235713671931E-09
(PID.TID 0000.0001) %MON trAdv_CFL_v_max              =   6.4097232045816E-09
(PID.TID 0000.0001) %MON trAdv_CFL_w_max              =   1.5554184210220E-14
(PID.TID 0000.0001) %MON advcfl_uvel_max              =   5.3302216276171E-09
(PID.TID 0000.0001) %MON advcfl_vvel_max              =   6.4128798835444E-09
(PID.TID 0000.0001) %MON advcfl_wvel_max              =   3.1095041183127E-14
(PID.TID 0000.0001) %MON advcfl_W_hf_max              =   0.0000000000000E+00
(PID.TID 0000.0001) %MON pe_b_mean                    =   6.3793911320682E-21
(PID.TID 0000.0001) %MON ke_max                       =   1.7741665962190E-17
(PID.TID 0000.0001) %MON ke_mean                      =   3.0869670365617E-18
(PID.TID 0000.0001) %MON ke_vol                       =   7.5645000000000E+15
(PID.TID 0000.0001) %MON vort_r_min                   =  -2.0977957256189E-13
(PID.TID 0000.0001) %MON vort_r_max                   =   2.5780349310642E-13
(PID.TID 0000.0001) %MON vort_a_mean                  =   8.2300000000000E-05
(PID.TID 0000.0001) %MON vort_a_sd                    =   7.1297555115613E-06
(PID.TID 0000.0001) %MON vort_p_mean                  =   8.3303658536585E-05
(PID.TID 0000.0001) %MON vort_p_sd                    =   1.7411470229930E-05
(PID.TID 0000.0001) %MON surfExpan_theta_mean         =   7.2904602782585E-27
(PID.TID 0000.0001) %MON surfExpan_salt_mean          =   1.0797536118818E-26
(PID.TID 0000.0001) // =======================================================
(PID.TID 0000.0001) // End MONITOR dynamic field statistics
(PID.TID 0000.0001) // =======================================================
 cg2d: Sum(rhs),rhsMax =  -8.03714388502876E-03  5.05651331875584E-10
 cg2d: Sum(rhs),rhsMax =  -8.05270161642532E-03  5.04674413419027E-10
 cg2d: Sum(rhs),rhsMax =  -8.06796800366432E-03  5.03719452216109E-10
 cg2d: Sum(rhs),rhsMax =  -8.08423987357125E-03  5.02705565562860E-10
 cg2d: Sum(rhs),rhsMax =  -8.10152401558416E-03  5.01633065590078E-10
 cg2d: Sum(rhs),rhsMax =  -8.11982780963828E-03  5.00502274101791E-10
 cg2d: Sum(rhs),rhsMax =  -8.13915917442551E-03  4.99313522499230E-10
 cg2d: Sum(rhs),rhsMax =  -8.15952664505861E-03  4.98067151702933E-10
 cg2d: Sum(rhs),rhsMax =  -8.18040190138699E-03  4.96796147610939E-10
 cg2d: Sum(rhs),rhsMax =  -8.20058282102602E-03  4.95573569652902E-10
 cg2d: Sum(rhs),rhsMax =  -8.22181615575780E-03  4.94293715375385E-10
 cg2d: Sum(rhs),rhsMax =  -8.24411138867846E-03  4.92956950354676E-10
 cg2d: Sum(rhs),rhsMax =  -8.26747862066190E-03  4.91563649452035E-10
 cg2d: Sum(rhs),rhsMax =  -8.29192858775110E-03  4.90114196727011E-10
 cg2d: Sum(rhs),rhsMax =  -8.31747265009516E-03  4.88608985348672E-10
 cg2d: Sum(rhs),rhsMax =  -8.34412284601919E-03  4.87048417962818E-10
(PID.TID 0000.0001)      cg2d_init_res =   3.68589973279252E-01
(PID.TID 0000.0001)      cg2d_iters(min,last) =      -1     551
(PID.TID 0000.0001)      cg2d_last_res =   9.65884658831378E-08
(PID.TID 0000.0001) // =======================================================
(PID.TID 0000.0001) // Begin MONITOR dynamic field statistics
(PID.TID 0000.0001) // =======================================================
(PID.TID 0000.0001) %MON time_tsnumber                =                  2256
(PID.TID 0000.0001) %MON time_secondsf                =   1.2182400000000E+07
(PID.TID 0000.0001) %MON dynstat_eta_max              =   6.6010256712762E-09
(PID.TID 0000.0001) %MON dynstat_eta_min              =  -3.9554733016279E-09
(PID.TID 0000.0001) %MON dynstat_eta_mean             =   3.9165179665714E-13
(PID.TID 0000.0001) %MON dynstat_eta_sd               =   2.5533149197467E-09
(PID.TID 0000.0001) %MON dynstat_eta_del2             =   2.7692801235661E-14
(PID.TID 0000.0001) %MON dynstat_uvel_max             =   3.2483383228224E-09
(PID.TID 0000.0001) %MON dynstat_uvel_min             =  -4.9965571458731E-09
(PID.TID 0000.0001) %MON dynstat_uvel_mean            =  -2.0973709586394E-13
(PID.TID 0000.0001) %MON dynstat_uvel_sd              =   1.3127774212642E-09
(PID.TID 0000.0001) %MON dynstat_uvel_del2            =   8.8759735814951E-14
(PID.TID 0000.0001) %MON dynstat_vvel_max             =   5.3836448635908E-09
(PID.TID 0000.0001) %MON dynstat_vvel_min             =  -5.9208411216450E-09
(PID.TID 0000.0001) %MON dynstat_vvel_mean            =  -3.9835960446662E-14
(PID.TID 0000.0001) %MON dynstat_vvel_sd              =   2.0905359757126E-09
(PID.TID 0000.0001) %MON dynstat_vvel_del2            =   1.0871228550657E-13
(PID.TID 0000.0001) %MON dynstat_wvel_max             =   1.4149521220808E-14
(PID.TID 0000.0001) %MON dynstat_wvel_min             =  -1.2530358118878E-14
(PID.TID 0000.0001) %MON dynstat_wvel_mean            =   3.0100896472148E-29
(PID.TID 0000.0001) %MON dynstat_wvel_sd              =   6.0404664343219E-15
(PID.TID 0000.0001) %MON dynstat_wvel_del2            =   4.4923868480396E-20
(PID.TID 0000.0001) %MON dynstat_theta_max            =   2.0000000000000E+01
(PID.TID 0000.0001) %MON dynstat_theta_min            =   2.0000000000000E+01
(PID.TID 0000.0001) %MON dynstat_theta_mean           =   2.0000000000000E+01
(PID.TID 0000.0001) %MON dynstat_theta_sd             =   0.0000000000000E+00
(PID.TID 0000.0001) %MON dynstat_theta_del2           =   0.0000000000000E+00
(PID.TID 0000.0001) %MON dynstat_salt_max             =   3.0000000000000E+01
(PID.TID 0000.0001) %MON dynstat_salt_min             =   3.0000000000000E+01
(PID.TID 0000.0001) %MON dynstat_salt_mean            =   3.0000000000000E+01
(PID.TID 0000.0001) %MON dynstat_salt_sd              =   0.0000000000000E+00
(PID.TID 0000.0001) %MON dynstat_salt_del2            =   0.0000000000000E+00
(PID.TID 0000.0001) %MON trAdv_CFL_u_max              =   5.3952517237259E-09
(PID.TID 0000.0001) %MON trAdv_CFL_v_max              =   6.3970170075303E-09
(PID.TID 0000.0001) %MON trAdv_CFL_w_max              =   1.5306602424148E-14
(PID.TID 0000.0001) %MON advcfl_uvel_max              =   5.3962817175429E-09
(PID.TID 0000.0001) %MON advcfl_vvel_max              =   6.3945084113766E-09
(PID.TID 0000.0001) %MON advcfl_wvel_max              =   3.0562965836944E-14
(PID.TID 0000.0001) %MON advcfl_W_hf_max              =   0.0000000000000E+00
(PID.TID 0000.0001) %MON pe_b_mean                    =   6.3955483053691E-21
(PID.TID 0000.0001) %MON ke_max                       =   1.7615261214894E-17
(PID.TID 0000.0001) %MON ke_mean                      =   3.0344770140874E-18
(PID.TID 0000.0001) %MON ke_vol                       =   7.5645000000000E+15
(PID.TID 0000.0001) %MON vort_r_min                   =  -1.8219528303639E-13
(PID.TID 0000.0001) %MON vort_r_max                   =   2.5157890944742E-13
(PID.TID 0000.0001) %MON vort_a_mean                  =   8.2299999999999E-05
(PID.TID 0000.0001) %MON vort_a_sd                    =   7.1297555115696E-06
(PID.TID 0000.0001) %MON vort_p_mean                  =   8.3303658536585E-05
(PID.TID 0000.0001) %MON vort_p_sd                    =   1.7411470229992E-05
(PID.TID 0000.0001) %MON surfExpan_theta_mean         =   5.7376306471663E-28
(PID.TID 0000.0001) %MON surfExpan_salt_mean          =   8.8077317696765E-28
(PID.TID 0000.0001) // =======================================================
(PID.TID 0000.0001) // End MONITOR dynamic field statistics
(PID.TID 0000.0001) // =======================================================
 cg2d: Sum(rhs),rhsMax =  -8.36971706051071E-03  4.85559041234439E-10
 cg2d: Sum(rhs),rhsMax =  -8.39629867804462E-03  4.84021817401728E-10
 cg2d: Sum(rhs),rhsMax =  -8.42400781371854E-03  4.82429717544571E-10
 cg2d: Sum(rhs),rhsMax =  -8.45285763574397E-03  4.80783167514514E-10
 cg2d: Sum(rhs),rhsMax =  -8.48286204947948E-03  4.79082601848178E-10
 cg2d: Sum(rhs),rhsMax =  -8.51403568927727E-03  4.77328463749280E-10
 cg2d: Sum(rhs),rhsMax =  -8.54639392135378E-03  4.75521204929185E-10
 cg2d: Sum(rhs),rhsMax =  -8.57868140426028E-03  4.73731487016415E-10
 cg2d: Sum(rhs),rhsMax =  -8.61110935924202E-03  4.71947491139805E-10
 cg2d: Sum(rhs),rhsMax =  -8.64474908887726E-03  4.70110974524444E-10
 cg2d: Sum(rhs),rhsMax =  -8.67961738389210E-03  4.68222411540802E-10
 cg2d: Sum(rhs),rhsMax =  -8.71573181830970E-03  4.66282284660281E-10
 cg2d: Sum(rhs),rhsMax =  -8.75311079485313E-03  4.64291084453120E-10
 cg2d: Sum(rhs),rhsMax =  -8.79177356489378E-03  4.62249309474988E-10
 cg2d: Sum(rhs),rhsMax =  -8.83168579887728E-03  4.60160303650590E-10
 cg2d: Sum(rhs),rhsMax =  -8.87059159805375E-03  4.58142067368694E-10
(PID.TID 0000.0001)      cg2d_init_res =   3.94337598534047E-01
(PID.TID 0000.0001)      cg2d_iters(min,last) =      -1     552
(PID.TID 0000.0001)      cg2d_last_res =   9.90639540711078E-08
(PID.TID 0000.0001) // =======================================================
(PID.TID 0000.0001) // Begin MONITOR dynamic field statistics
(PID.TID 0000.0001) // =======================================================
(PID.TID 0000.0001) %MON time_tsnumber                =                  2272
(PID.TID 0000.0001) %MON time_secondsf                =   1.2268800000000E+07
(PID.TID 0000.0001) %MON dynstat_eta_max              =   6.2532135678575E-09
(PID.TID 0000.0001) %MON dynstat_eta_min              =  -3.9014178606621E-09
(PID.TID 0000.0001) %MON dynstat_eta_mean             =   3.9165173317732E-13
(PID.TID 0000.0001) %MON dynstat_eta_sd               =   2.5545046265677E-09
(PID.TID 0000.0001) %MON dynstat_eta_del2             =   2.7323970051474E-14
(PID.TID 0000.0001) %MON dynstat_uvel_max             =   3.3858174207265E-09
(PID.TID 0000.0001) %MON dynstat_uvel_min             =  -4.9769014265613E-09
(PID.TID 0000.0001) %MON dynstat_uvel_mean            =  -2.4971834119682E-13
(PID.TID 0000.0001) %MON dynstat_uvel_sd              =   1.3409963653022E-09
(PID.TID 0000.0001) %MON dynstat_uvel_del2            =   8.7307667680486E-14
(PID.TID 0000.0001) %MON dynstat_vvel_max             =   5.1273652222719E-09
(PID.TID 0000.0001) %MON dynstat_vvel_min             =  -5.8193167802610E-09
(PID.TID 0000.0001) %MON dynstat_vvel_mean            =  -3.6310182261691E-14
(PID.TID 0000.0001) %MON dynstat_vvel_sd              =   2.0474009924494E-09
(PID.TID 0000.0001) %MON dynstat_vvel_del2            =   1.1441090380098E-13
(PID.TID 0000.0001) %MON dynstat_wvel_max             =   1.3628584188963E-14
(PID.TID 0000.0001) %MON dynstat_wvel_min             =  -1.3295188759921E-14
(PID.TID 0000.0001) %MON dynstat_wvel_mean            =   1.5578548358708E-28
(PID.TID 0000.0001) %MON dynstat_wvel_sd              =   6.0438353324214E-15
(PID.TID 0000.0001) %MON dynstat_wvel_del2            =   4.5373560790514E-20
(PID.TID 0000.0001) %MON dynstat_theta_max            =   2.0000000000000E+01
(PID.TID 0000.0001) %MON dynstat_theta_min            =   2.0000000000000E+01
(PID.TID 0000.0001) %MON dynstat_theta_mean           =   2.0000000000000E+01
(PID.TID 0000.0001) %MON dynstat_theta_sd             =   0.0000000000000E+00
(PID.TID 0000.0001) %MON dynstat_theta_del2           =   0.0000000000000E+00
(PID.TID 0000.0001) %MON dynstat_salt_max             =   3.0000000000000E+01
(PID.TID 0000.0001) %MON dynstat_salt_min             =   3.0000000000000E+01
(PID.TID 0000.0001) %MON dynstat_salt_mean            =   3.0000000000000E+01
(PID.TID 0000.0001) %MON dynstat_salt_sd              =   0.0000000000000E+00
(PID.TID 0000.0001) %MON dynstat_salt_del2            =   0.0000000000000E+00
(PID.TID 0000.0001) %MON trAdv_CFL_u_max              =   5.3785649141521E-09
(PID.TID 0000.0001) %MON trAdv_CFL_v_max              =   6.2930727784781E-09
(PID.TID 0000.0001) %MON trAdv_CFL_w_max              =   1.4761156905396E-14
(PID.TID 0000.0001) %MON advcfl_uvel_max              =   5.3750535406863E-09
(PID.TID 0000.0001) %MON advcfl_vvel_max              =   6.2848621226819E-09
(PID.TID 0000.0001) %MON advcfl_wvel_max              =   2.9437741848160E-14
(PID.TID 0000.0001) %MON advcfl_W_hf_max              =   0.0000000000000E+00
(PID.TID 0000.0001) %MON pe_b_mean                    =   6.4015096537766E-21
(PID.TID 0000.0001) %MON ke_max                       =   1.6991470828677E-17
(PID.TID 0000.0001) %MON ke_mean                      =   2.9828860246585E-18
(PID.TID 0000.0001) %MON ke_vol                       =   7.5645000000000E+15
(PID.TID 0000.0001) %MON vort_r_min                   =  -1.4919776029797E-13
(PID.TID 0000.0001) %MON vort_r_max                   =   2.4046992840800E-13
(PID.TID 0000.0001) %MON vort_a_mean                  =   8.2300000000000E-05
(PID.TID 0000.0001) %MON vort_a_sd                    =   7.1297555115535E-06
(PID.TID 0000.0001) %MON vort_p_mean                  =   8.3303658536585E-05
(PID.TID 0000.0001) %MON vort_p_sd                    =   1.7411470230027E-05
(PID.TID 0000.0001) %MON surfExpan_theta_mean         =   3.1195413310107E-27
(PID.TID 0000.0001) %MON surfExpan_salt_mean          =   4.6405065892801E-27
(PID.TID 0000.0001) // =======================================================
(PID.TID 0000.0001) // End MONITOR dynamic field statistics
(PID.TID 0000.0001) // =======================================================
 cg2d: Sum(rhs),rhsMax =  -8.91081573982976E-03  4.56073972215300E-10
 cg2d: Sum(rhs),rhsMax =  -8.95237924047714E-03  4.53956537996879E-10
 cg2d: Sum(rhs),rhsMax =  -8.98629747956074E-03  4.52243101860171E-10
 cg2d: Sum(rhs),rhsMax =  -8.96109185722156E-03  4.53515159681710E-10
 cg2d: Sum(rhs),rhsMax =  -8.93673539766171E-03  4.54751179169760E-10
 cg2d: Sum(rhs),rhsMax =  -8.91322591600194E-03  4.55950624003243E-10
 cg2d: Sum(rhs),rhsMax =  -8.89056141622972E-03  4.57112963478017E-10
 cg2d: Sum(rhs),rhsMax =  -8.86874010975058E-03  4.58237672736992E-10
 cg2d: Sum(rhs),rhsMax =  -8.84776045773774E-03  4.59324232913017E-10
 cg2d: Sum(rhs),rhsMax =  -8.82733144192119E-03  4.60387237884986E-10
 cg2d: Sum(rhs),rhsMax =  -8.80670412981408E-03  4.61465564615820E-10
 cg2d: Sum(rhs),rhsMax =  -8.78691352055655E-03  4.62504909424285E-10
 cg2d: Sum(rhs),rhsMax =  -8.76795837094797E-03  4.63504777341887E-10
 cg2d: Sum(rhs),rhsMax =  -8.74983763189816E-03  4.64464679774901E-10
 cg2d: Sum(rhs),rhsMax =  -8.73255052059928E-03  4.65384134519853E-10
 cg2d: Sum(rhs),rhsMax =  -8.71609650646293E-03  4.66262666287612E-10
(PID.TID 0000.0001)      cg2d_init_res =   3.87493325548063E-01
(PID.TID 0000.0001)      cg2d_iters(min,last) =      -1     552
(PID.TID 0000.0001)      cg2d_last_res =   9.98039431902642E-08
(PID.TID 0000.0001) // =======================================================
(PID.TID 0000.0001) // Begin MONITOR dynamic field statistics
(PID.TID 0000.0001) // =======================================================
(PID.TID 0000.0001) %MON time_tsnumber                =                  2288
(PID.TID 0000.0001) %MON time_secondsf                =   1.2355200000000E+07
(PID.TID 0000.0001) %MON dynstat_eta_max              =   6.2466932342181E-09
(PID.TID 0000.0001) %MON dynstat_eta_min              =  -3.7601809017369E-09
(PID.TID 0000.0001) %MON dynstat_eta_mean             =   3.9165165485548E-13
(PID.TID 0000.0001) %MON dynstat_eta_sd               =   2.5540287354190E-09
(PID.TID 0000.0001) %MON dynstat_eta_del2             =   2.7074806670625E-14
(PID.TID 0000.0001) %MON dynstat_uvel_max             =   3.6065801602261E-09
(PID.TID 0000.0001) %MON dynstat_uvel_min             =  -4.8755155572714E-09
(PID.TID 0000.0001) %MON dynstat_uvel_mean            =  -2.7723007368499E-13
(PID.TID 0000.0001) %MON dynstat_uvel_sd              =   1.3586195175913E-09
(PID.TID 0000.0001) %MON dynstat_uvel_del2            =   8.5056880720064E-14
(PID.TID 0000.0001) %MON dynstat_vvel_max             =   4.7973125735842E-09
(PID.TID 0000.0001) %MON dynstat_vvel_min             =  -5.6361122324653E-09
(PID.TID 0000.0001) %MON dynstat_vvel_mean            =  -3.1707750207235E-14
(PID.TID 0000.0001) %MON dynstat_vvel_sd              =   2.0103342566628E-09
(PID.TID 0000.0001) %MON dynstat_vvel_del2            =   1.2043083114249E-13
(PID.TID 0000.0001) %MON dynstat_wvel_max             =   1.2872533486918E-14
(PID.TID 0000.0001) %MON dynstat_wvel_min             =  -1.3837056036525E-14
(PID.TID 0000.0001) %MON dynstat_wvel_mean            =   9.7891921522743E-28
(PID.TID 0000.0001) %MON dynstat_wvel_sd              =   6.0414822194621E-15
(PID.TID 0000.0001) %MON dynstat_wvel_del2            =   4.5624798629726E-20
(PID.TID 0000.0001) %MON dynstat_theta_max            =   2.0000000000000E+01
(PID.TID 0000.0001) %MON dynstat_theta_min            =   2.0000000000000E+01
(PID.TID 0000.0001) %MON dynstat_theta_mean           =   2.0000000000000E+01
(PID.TID 0000.0001) %MON dynstat_theta_sd             =   0.0000000000000E+00
(PID.TID 0000.0001) %MON dynstat_theta_del2           =   0.0000000000000E+00
(PID.TID 0000.0001) %MON dynstat_salt_max             =   3.0000000000000E+01
(PID.TID 0000.0001) %MON dynstat_salt_min             =   3.0000000000000E+01
(PID.TID 0000.0001) %MON dynstat_salt_mean            =   3.0000000000000E+01
(PID.TID 0000.0001) %MON dynstat_salt_sd              =   0.0000000000000E+00
(PID.TID 0000.0001) %MON dynstat_salt_del2            =   0.0000000000000E+00
(PID.TID 0000.0001) %MON trAdv_CFL_u_max              =   5.2748726459277E-09
(PID.TID 0000.0001) %MON trAdv_CFL_v_max              =   6.1007886778995E-09
(PID.TID 0000.0001) %MON trAdv_CFL_w_max              =   1.3957738331127E-14
(PID.TID 0000.0001) %MON advcfl_uvel_max              =   5.2655568018532E-09
(PID.TID 0000.0001) %MON advcfl_vvel_max              =   6.0870012110625E-09
(PID.TID 0000.0001) %MON advcfl_wvel_max              =   2.9888041038895E-14
(PID.TID 0000.0001) %MON advcfl_W_hf_max              =   0.0000000000000E+00
(PID.TID 0000.0001) %MON pe_b_mean                    =   6.3991247389769E-21
(PID.TID 0000.0001) %MON ke_max                       =   1.5915565603604E-17
(PID.TID 0000.0001) %MON ke_mean                      =   2.9316794090727E-18
(PID.TID 0000.0001) %MON ke_vol                       =   7.5645000000000E+15
(PID.TID 0000.0001) %MON vort_r_min                   =  -1.7262377100973E-13
(PID.TID 0000.0001) %MON vort_r_max                   =   2.2481572492723E-13
(PID.TID 0000.0001) %MON vort_a_mean                  =   8.2300000000000E-05
(PID.TID 0000.0001) %MON vort_a_sd                    =   7.1297555115607E-06
(PID.TID 0000.0001) %MON vort_p_mean                  =   8.3303658536586E-05
(PID.TID 0000.0001) %MON vort_p_sd                    =   1.7411470230053E-05
(PID.TID 0000.0001) %MON surfExpan_theta_mean         =   1.9607216528968E-26
(PID.TID 0000.0001) %MON surfExpan_salt_mean          =   2.9398476218739E-26
(PID.TID 0000.0001) // =======================================================
(PID.TID 0000.0001) // End MONITOR dynamic field statistics
(PID.TID 0000.0001) // =======================================================
 cg2d: Sum(rhs),rhsMax =  -8.70047528210046E-03  4.67099806281515E-10
 cg2d: Sum(rhs),rhsMax =  -8.68568682929515E-03  4.67895092572130E-10
 cg2d: Sum(rhs),rhsMax =  -8.67144480223013E-03  4.68663555751427E-10
 cg2d: Sum(rhs),rhsMax =  -8.65692227881382E-03  4.69449757275952E-10
 cg2d: Sum(rhs),rhsMax =  -8.64322963657777E-03  4.70193451073877E-10
 cg2d: Sum(rhs),rhsMax =  -8.60810951633056E-03  4.72111776194596E-10
 cg2d: Sum(rhs),rhsMax =  -8.55133428233721E-03  4.75246275445494E-10
 cg2d: Sum(rhs),rhsMax =  -8.49639219925144E-03  4.78319451522474E-10
 cg2d: Sum(rhs),rhsMax =  -8.44309668502145E-03  4.81338741275125E-10
 cg2d: Sum(rhs),rhsMax =  -8.39162895058630E-03  4.84290883459771E-10
 cg2d: Sum(rhs),rhsMax =  -8.34194391486349E-03  4.87175326080948E-10
 cg2d: Sum(rhs),rhsMax =  -8.29399863841966E-03  4.89991529742748E-10
 cg2d: Sum(rhs),rhsMax =  -8.24775217051433E-03  4.92738967754741E-10
 cg2d: Sum(rhs),rhsMax =  -8.20316547313038E-03  4.95417126235209E-10
 cg2d: Sum(rhs),rhsMax =  -8.16020136783228E-03  4.98025504210757E-10
 cg2d: Sum(rhs),rhsMax =  -8.11882437368753E-03  5.00563613714408E-10
(PID.TID 0000.0001)      cg2d_init_res =   3.58625631286323E-01
(PID.TID 0000.0001)      cg2d_iters(min,last) =      -1     552
(PID.TID 0000.0001)      cg2d_last_res =   9.41353222603034E-08
(PID.TID 0000.0001) // =======================================================
(PID.TID 0000.0001) // Begin MONITOR dynamic field statistics
(PID.TID 0000.0001) // =======================================================
(PID.TID 0000.0001) %MON time_tsnumber                =                  2304
(PID.TID 0000.0001) %MON time_secondsf                =   1.2441600000000E+07
(PID.TID 0000.0001) %MON dynstat_eta_max              =   6.5635598502585E-09
(PID.TID 0000.0001) %MON dynstat_eta_min              =  -3.6830262637900E-09
(PID.TID 0000.0001) %MON dynstat_eta_mean             =   3.9165139563086E-13
(PID.TID 0000.0001) %MON dynstat_eta_sd               =   2.5520344012139E-09
(PID.TID 0000.0001) %MON dynstat_eta_del2             =   2.6955120684449E-14
(PID.TID 0000.0001) %MON dynstat_uvel_max             =   3.7892930164169E-09
(PID.TID 0000.0001) %MON dynstat_uvel_min             =  -4.6901249046071E-09
(PID.TID 0000.0001) %MON dynstat_uvel_mean            =  -2.9080514975639E-13
(PID.TID 0000.0001) %MON dynstat_uvel_sd              =   1.3615628116978E-09
(PID.TID 0000.0001) %MON dynstat_uvel_del2            =   8.2338359138791E-14
(PID.TID 0000.0001) %MON dynstat_vvel_max             =   4.4072765142413E-09
(PID.TID 0000.0001) %MON dynstat_vvel_min             =  -5.5919476243035E-09
(PID.TID 0000.0001) %MON dynstat_vvel_mean            =  -2.6253496137511E-14
(PID.TID 0000.0001) %MON dynstat_vvel_sd              =   1.9825233234318E-09
(PID.TID 0000.0001) %MON dynstat_vvel_del2            =   1.2607052608879E-13
(PID.TID 0000.0001) %MON dynstat_wvel_max             =   1.1970292076446E-14
(PID.TID 0000.0001) %MON dynstat_wvel_min             =  -1.4135098004853E-14
(PID.TID 0000.0001) %MON dynstat_wvel_mean            =   6.4892205333061E-29
(PID.TID 0000.0001) %MON dynstat_wvel_sd              =   6.0312326623746E-15
(PID.TID 0000.0001) %MON dynstat_wvel_del2            =   4.5616312554554E-20
(PID.TID 0000.0001) %MON dynstat_theta_max            =   2.0000000000000E+01
(PID.TID 0000.0001) %MON dynstat_theta_min            =   2.0000000000000E+01
(PID.TID 0000.0001) %MON dynstat_theta_mean           =   2.0000000000000E+01
(PID.TID 0000.0001) %MON dynstat_theta_sd             =   0.0000000000000E+00
(PID.TID 0000.0001) %MON dynstat_theta_del2           =   0.0000000000000E+00
(PID.TID 0000.0001) %MON dynstat_salt_max             =   3.0000000000000E+01
(PID.TID 0000.0001) %MON dynstat_salt_min             =   3.0000000000000E+01
(PID.TID 0000.0001) %MON dynstat_salt_mean            =   3.0000000000000E+01
(PID.TID 0000.0001) %MON dynstat_salt_sd              =   0.0000000000000E+00
(PID.TID 0000.0001) %MON dynstat_salt_del2            =   0.0000000000000E+00
(PID.TID 0000.0001) %MON trAdv_CFL_u_max              =   5.0800454761286E-09
(PID.TID 0000.0001) %MON trAdv_CFL_v_max              =   6.0401255979748E-09
(PID.TID 0000.0001) %MON trAdv_CFL_w_max              =   1.2990737211549E-14
(PID.TID 0000.0001) %MON advcfl_uvel_max              =   5.0653348969757E-09
(PID.TID 0000.0001) %MON advcfl_vvel_max              =   6.0393034342478E-09
(PID.TID 0000.0001) %MON advcfl_wvel_max              =   3.0531811690482E-14
(PID.TID 0000.0001) %MON advcfl_W_hf_max              =   0.0000000000000E+00
(PID.TID 0000.0001) %MON pe_b_mean                    =   6.3891350233410E-21
(PID.TID 0000.0001) %MON ke_max                       =   1.5659796121935E-17
(PID.TID 0000.0001) %MON ke_mean                      =   2.8803694417369E-18
(PID.TID 0000.0001) %MON ke_vol                       =   7.5645000000000E+15
(PID.TID 0000.0001) %MON vort_r_min                   =  -1.9874234629700E-13
(PID.TID 0000.0001) %MON vort_r_max                   =   2.0515110198998E-13
(PID.TID 0000.0001) %MON vort_a_mean                  =   8.2300000000000E-05
(PID.TID 0000.0001) %MON vort_a_sd                    =   7.1297555115653E-06
(PID.TID 0000.0001) %MON vort_p_mean                  =   8.3303658536585E-05
(PID.TID 0000.0001) %MON vort_p_sd                    =   1.7411470230057E-05
(PID.TID 0000.0001) %MON surfExpan_theta_mean         =   1.3078678035236E-27
(PID.TID 0000.0001) %MON surfExpan_salt_mean          =   1.9661740390824E-27
(PID.TID 0000.0001) // =======================================================
(PID.TID 0000.0001) // End MONITOR dynamic field statistics
(PID.TID 0000.0001) // =======================================================
 cg2d: Sum(rhs),rhsMax =  -8.07875560531062E-03  5.03046239942212E-10
 cg2d: Sum(rhs),rhsMax =  -8.04020022326246E-03  5.05458408866521E-10
 cg2d: Sum(rhs),rhsMax =  -8.00314013027939E-03  5.07798825847511E-10
 cg2d: Sum(rhs),rhsMax =  -7.96780313482871E-03  5.10067055238655E-10
 cg2d: Sum(rhs),rhsMax =  -7.93365536559857E-03  5.12262673316432E-10
 cg2d: Sum(rhs),rhsMax =  -7.90091889651434E-03  5.14385273100368E-10
 cg2d: Sum(rhs),rhsMax =  -7.86956952185259E-03  5.16434458084448E-10
 cg2d: Sum(rhs),rhsMax =  -7.83958351090384E-03  5.18409847060007E-10
 cg2d: Sum(rhs),rhsMax =  -7.81089512110115E-03  5.20313940604676E-10
 cg2d: Sum(rhs),rhsMax =  -7.78334469558515E-03  5.22155712877563E-10
 cg2d: Sum(rhs),rhsMax =  -7.75709741410999E-03  5.23922535098247E-10
 cg2d: Sum(rhs),rhsMax =  -7.73213381530985E-03  5.25614080817288E-10
 cg2d: Sum(rhs),rhsMax =  -7.70843534529000E-03  5.27230036230904E-10
 cg2d: Sum(rhs),rhsMax =  -7.68598458080029E-03  5.28770103162183E-10
 cg2d: Sum(rhs),rhsMax =  -7.66476513007981E-03  5.30233996975054E-10
 cg2d: Sum(rhs),rhsMax =  -7.64476161055569E-03  5.31621447273229E-10
(PID.TID 0000.0001)      cg2d_init_res =   3.33510029040348E-01
(PID.TID 0000.0001)      cg2d_iters(min,last) =      -1     550
(PID.TID 0000.0001)      cg2d_last_res =   9.77573795217315E-08
(PID.TID 0000.0001) // =======================================================
(PID.TID 0000.0001) // Begin MONITOR dynamic field statistics
(PID.TID 0000.0001) // =======================================================
(PID.TID 0000.0001) %MON time_tsnumber                =                  2320
(PID.TID 0000.0001) %MON time_secondsf                =   1.2528000000000E+07
(PID.TID 0000.0001) %MON dynstat_eta_max              =   6.7255149836119E-09
(PID.TID 0000.0001) %MON dynstat_eta_min              =  -4.0756646066122E-09
(PID.TID 0000.0001) %MON dynstat_eta_mean             =   3.9166409425969E-13
(PID.TID 0000.0001) %MON dynstat_eta_sd               =   2.5483227121816E-09
(PID.TID 0000.0001) %MON dynstat_eta_del2             =   2.6959221550800E-14
(PID.TID 0000.0001) %MON dynstat_uvel_max             =   3.9230050079433E-09
(PID.TID 0000.0001) %MON dynstat_uvel_min             =  -4.4269870065817E-09
(PID.TID 0000.0001) %MON dynstat_uvel_mean            =  -2.8972409327496E-13
(PID.TID 0000.0001) %MON dynstat_uvel_sd              =   1.3477728895114E-09
(PID.TID 0000.0001) %MON dynstat_uvel_del2            =   7.9624517290588E-14
(PID.TID 0000.0001) %MON dynstat_vvel_max             =   3.9681160788004E-09
(PID.TID 0000.0001) %MON dynstat_vvel_min             =  -5.5632086598617E-09
(PID.TID 0000.0001) %MON dynstat_vvel_mean            =  -2.0201068832795E-14
(PID.TID 0000.0001) %MON dynstat_vvel_sd              =   1.9656314030078E-09
(PID.TID 0000.0001) %MON dynstat_vvel_del2            =   1.3072500067025E-13
(PID.TID 0000.0001) %MON dynstat_wvel_max             =   1.1014765570472E-14
(PID.TID 0000.0001) %MON dynstat_wvel_min             =  -1.4178058401204E-14
(PID.TID 0000.0001) %MON dynstat_wvel_mean            =  -4.6700371419483E-28
(PID.TID 0000.0001) %MON dynstat_wvel_sd              =   6.0127509600208E-15
(PID.TID 0000.0001) %MON dynstat_wvel_del2            =   4.5329843682301E-20
(PID.TID 0000.0001) %MON dynstat_theta_max            =   2.0000000000000E+01
(PID.TID 0000.0001) %MON dynstat_theta_min            =   2.0000000000000E+01
(PID.TID 0000.0001) %MON dynstat_theta_mean           =   2.0000000000000E+01
(PID.TID 0000.0001) %MON dynstat_theta_sd             =   0.0000000000000E+00
(PID.TID 0000.0001) %MON dynstat_theta_del2           =   0.0000000000000E+00
(PID.TID 0000.0001) %MON dynstat_salt_max             =   3.0000000000000E+01
(PID.TID 0000.0001) %MON dynstat_salt_min             =   3.0000000000000E+01
(PID.TID 0000.0001) %MON dynstat_salt_mean            =   3.0000000000000E+01
(PID.TID 0000.0001) %MON dynstat_salt_sd              =   0.0000000000000E+00
(PID.TID 0000.0001) %MON dynstat_salt_del2            =   0.0000000000000E+00
(PID.TID 0000.0001) %MON trAdv_CFL_u_max              =   4.8006255303494E-09
(PID.TID 0000.0001) %MON trAdv_CFL_v_max              =   6.0127984041155E-09
(PID.TID 0000.0001) %MON trAdv_CFL_w_max              =   1.1960991721971E-14
(PID.TID 0000.0001) %MON advcfl_uvel_max              =   4.7811459671083E-09
(PID.TID 0000.0001) %MON advcfl_vvel_max              =   6.0082653526507E-09
(PID.TID 0000.0001) %MON advcfl_wvel_max              =   3.0624606146601E-14
(PID.TID 0000.0001) %MON advcfl_W_hf_max              =   0.0000000000000E+00
(PID.TID 0000.0001) %MON pe_b_mean                    =   6.3705637716439E-21
(PID.TID 0000.0001) %MON ke_max                       =   1.5473909145345E-17
(PID.TID 0000.0001) %MON ke_mean                      =   2.8285542100457E-18
(PID.TID 0000.0001) %MON ke_vol                       =   7.5645000000000E+15
(PID.TID 0000.0001) %MON vort_r_min                   =  -2.1829451114373E-13
(PID.TID 0000.0001) %MON vort_r_max                   =   1.9208979337558E-13
(PID.TID 0000.0001) %MON vort_a_mean                  =   8.2299999999999E-05
(PID.TID 0000.0001) %MON vort_a_sd                    =   7.1297555115696E-06
(PID.TID 0000.0001) %MON vort_p_mean                  =   8.3303658536585E-05
(PID.TID 0000.0001) %MON vort_p_sd                    =   1.7411470230041E-05
(PID.TID 0000.0001) %MON surfExpan_theta_mean         =  -9.3278410162946E-27
(PID.TID 0000.0001) %MON surfExpan_salt_mean          =  -1.3997295316266E-26
(PID.TID 0000.0001) // =======================================================
(PID.TID 0000.0001) // End MONITOR dynamic field statistics
(PID.TID 0000.0001) // =======================================================
 cg2d: Sum(rhs),rhsMax =  -7.62595957551167E-03  5.32932197911407E-10
 cg2d: Sum(rhs),rhsMax =  -7.60833948520296E-03  5.34166431664975E-10
 cg2d: Sum(rhs),rhsMax =  -7.59169982612339E-03  5.35337248790970E-10
 cg2d: Sum(rhs),rhsMax =  -7.53355584981905E-03  5.39469000044293E-10
 cg2d: Sum(rhs),rhsMax =  -7.47058745582144E-03  5.44016115544195E-10
 cg2d: Sum(rhs),rhsMax =  -7.40902901141029E-03  5.48536129879406E-10
 cg2d: Sum(rhs),rhsMax =  -7.34884924545060E-03  5.53028111528327E-10
 cg2d: Sum(rhs),rhsMax =  -7.29001790475178E-03  5.57491132457173E-10
 cg2d: Sum(rhs),rhsMax =  -7.23250564660745E-03  5.61924268872734E-10
 cg2d: Sum(rhs),rhsMax =  -7.17628404891050E-03  5.66326601272724E-10
 cg2d: Sum(rhs),rhsMax =  -7.12132555427583E-03  5.70697214631634E-10
 cg2d: Sum(rhs),rhsMax =  -7.06760346558931E-03  5.75035198583194E-10
 cg2d: Sum(rhs),rhsMax =  -7.01509188765529E-03  5.79339647602277E-10
 cg2d: Sum(rhs),rhsMax =  -6.96376572211308E-03  5.83609661184942E-10
 cg2d: Sum(rhs),rhsMax =  -6.91360066138007E-03  5.87844344027873E-10
 cg2d: Sum(rhs),rhsMax =  -6.86457314407205E-03  5.92042806380107E-10
(PID.TID 0000.0001)      cg2d_init_res =   2.94402330452897E-01
(PID.TID 0000.0001)      cg2d_iters(min,last) =      -1     549
(PID.TID 0000.0001)      cg2d_last_res =   9.86918098951563E-08
(PID.TID 0000.0001) // =======================================================
(PID.TID 0000.0001) // Begin MONITOR dynamic field statistics
(PID.TID 0000.0001) // =======================================================
(PID.TID 0000.0001) %MON time_tsnumber                =                  2336
(PID.TID 0000.0001) %MON time_secondsf                =   1.2614400000000E+07
(PID.TID 0000.0001) %MON dynstat_eta_max              =   6.7203749606425E-09
(PID.TID 0000.0001) %MON dynstat_eta_min              =  -4.4173552533763E-09
(PID.TID 0000.0001) %MON dynstat_eta_mean             =   3.9166427297951E-13
(PID.TID 0000.0001) %MON dynstat_eta_sd               =   2.5423472598364E-09
(PID.TID 0000.0001) %MON dynstat_eta_del2             =   2.7065447131899E-14
(PID.TID 0000.0001) %MON dynstat_uvel_max             =   3.9989475201859E-09
(PID.TID 0000.0001) %MON dynstat_uvel_min             =  -4.1053673163264E-09
(PID.TID 0000.0001) %MON dynstat_uvel_mean            =  -2.7404958749357E-13
(PID.TID 0000.0001) %MON dynstat_uvel_sd              =   1.3174390275594E-09
(PID.TID 0000.0001) %MON dynstat_uvel_del2            =   7.7460310350398E-14
(PID.TID 0000.0001) %MON dynstat_vvel_max             =   3.9634666220422E-09
(PID.TID 0000.0001) %MON dynstat_vvel_min             =  -5.4750660148192E-09
(PID.TID 0000.0001) %MON dynstat_vvel_mean            =  -1.3820032757024E-14
(PID.TID 0000.0001) %MON dynstat_vvel_sd              =   1.9593251544720E-09
(PID.TID 0000.0001) %MON dynstat_vvel_del2            =   1.3393184309163E-13
(PID.TID 0000.0001) %MON dynstat_wvel_max             =   1.0132704991728E-14
(PID.TID 0000.0001) %MON dynstat_wvel_min             =  -1.3973951124013E-14
(PID.TID 0000.0001) %MON dynstat_wvel_mean            =   3.2377924559662E-28
(PID.TID 0000.0001) %MON dynstat_wvel_sd              =   5.9876083189393E-15
(PID.TID 0000.0001) %MON dynstat_wvel_del2            =   4.4812581634115E-20
(PID.TID 0000.0001) %MON dynstat_theta_max            =   2.0000000000000E+01
(PID.TID 0000.0001) %MON dynstat_theta_min            =   2.0000000000000E+01
(PID.TID 0000.0001) %MON dynstat_theta_mean           =   2.0000000000000E+01
(PID.TID 0000.0001) %MON dynstat_theta_sd             =   0.0000000000000E+00
(PID.TID 0000.0001) %MON dynstat_theta_del2           =   0.0000000000000E+00
(PID.TID 0000.0001) %MON dynstat_salt_max             =   3.0000000000000E+01
(PID.TID 0000.0001) %MON dynstat_salt_min             =   3.0000000000000E+01
(PID.TID 0000.0001) %MON dynstat_salt_mean            =   3.0000000000000E+01
(PID.TID 0000.0001) %MON dynstat_salt_sd              =   0.0000000000000E+00
(PID.TID 0000.0001) %MON dynstat_salt_del2            =   0.0000000000000E+00
(PID.TID 0000.0001) %MON trAdv_CFL_u_max              =   4.4569647603018E-09
(PID.TID 0000.0001) %MON trAdv_CFL_v_max              =   5.9211530700197E-09
(PID.TID 0000.0001) %MON trAdv_CFL_w_max              =   1.0963716940415E-14
(PID.TID 0000.0001) %MON advcfl_uvel_max              =   4.4337967016325E-09
(PID.TID 0000.0001) %MON advcfl_vvel_max              =   5.9130712960048E-09
(PID.TID 0000.0001) %MON advcfl_wvel_max              =   3.0183734427869E-14
(PID.TID 0000.0001) %MON advcfl_W_hf_max              =   0.0000000000000E+00
(PID.TID 0000.0001) %MON pe_b_mean                    =   6.3407226778818E-21
(PID.TID 0000.0001) %MON ke_max                       =   1.5034791840478E-17
(PID.TID 0000.0001) %MON ke_mean                      =   2.7759698745050E-18
(PID.TID 0000.0001) %MON ke_vol                       =   7.5645000000000E+15
(PID.TID 0000.0001) %MON vort_r_min                   =  -2.3024580823101E-13
(PID.TID 0000.0001) %MON vort_r_max                   =   2.2184130750997E-13
(PID.TID 0000.0001) %MON vort_a_mean                  =   8.2300000000001E-05
(PID.TID 0000.0001) %MON vort_a_sd                    =   7.1297555115518E-06
(PID.TID 0000.0001) %MON vort_p_mean                  =   8.3303658536586E-05
(PID.TID 0000.0001) %MON vort_p_sd                    =   1.7411470229994E-05
(PID.TID 0000.0001) %MON surfExpan_theta_mean         =   6.4848311121631E-27
(PID.TID 0000.0001) %MON surfExpan_salt_mean          =   9.7004397746808E-27
(PID.TID 0000.0001) // =======================================================
(PID.TID 0000.0001) // End MONITOR dynamic field statistics
(PID.TID 0000.0001) // =======================================================
 cg2d: Sum(rhs),rhsMax =  -6.81666029767447E-03  5.96204163564663E-10
 cg2d: Sum(rhs),rhsMax =  -6.76983996337925E-03  6.00327537040717E-10
 cg2d: Sum(rhs),rhsMax =  -6.72409065972442E-03  6.04412054110281E-10
 cg2d: Sum(rhs),rhsMax =  -6.67939156531402E-03  6.08456848112710E-10
 cg2d: Sum(rhs),rhsMax =  -6.63572251412820E-03  6.12461058692651E-10
 cg2d: Sum(rhs),rhsMax =  -6.59306392029334E-03  6.16423831824511E-10
 cg2d: Sum(rhs),rhsMax =  -6.55139683439835E-03  6.20344320195083E-10
 cg2d: Sum(rhs),rhsMax =  -6.51070286990796E-03  6.24221683122334E-10
 cg2d: Sum(rhs),rhsMax =  -6.47096422988662E-03  6.28055086805091E-10
 cg2d: Sum(rhs),rhsMax =  -6.43216363220746E-03  6.31843704908628E-10
 cg2d: Sum(rhs),rhsMax =  -6.39428433532912E-03  6.35586718103664E-10
 cg2d: Sum(rhs),rhsMax =  -6.35731012670524E-03  6.39283314400329E-10
 cg2d: Sum(rhs),rhsMax =  -6.32122529511406E-03  6.42932689491696E-10
 cg2d: Sum(rhs),rhsMax =  -6.28601461875716E-03  6.46534046819726E-10
 cg2d: Sum(rhs),rhsMax =  -6.25166334627115E-03  6.50086597730926E-10
 cg2d: Sum(rhs),rhsMax =  -6.21812856710470E-03  6.53592571445649E-10
(PID.TID 0000.0001)      cg2d_init_res =   2.61487188404447E-01
(PID.TID 0000.0001)      cg2d_iters(min,last) =      -1     548
(PID.TID 0000.0001)      cg2d_last_res =   9.35006094366672E-08
(PID.TID 0000.0001) // =======================================================
(PID.TID 0000.0001) // Begin MONITOR dynamic field statistics
(PID.TID 0000.0001) // =======================================================
(PID.TID 0000.0001) %MON time_tsnumber                =                  2352
(PID.TID 0000.0001) %MON time_secondsf                =   1.2700800000000E+07
(PID.TID 0000.0001) %MON dynstat_eta_max              =   6.5466024966100E-09
(PID.TID 0000.0001) %MON dynstat_eta_min              =  -4.6898732754369E-09
(PID.TID 0000.0001) %MON dynstat_eta_mean             =   3.9166441470702E-13
(PID.TID 0000.0001) %MON dynstat_eta_sd               =   2.5333344764063E-09
(PID.TID 0000.0001) %MON dynstat_eta_del2             =   2.7238690401846E-14
(PID.TID 0000.0001) %MON dynstat_uvel_max             =   4.0164093732335E-09
(PID.TID 0000.0001) %MON dynstat_uvel_min             =  -3.7297415397890E-09
(PID.TID 0000.0001) %MON dynstat_uvel_mean            =  -2.4461836641346E-13
(PID.TID 0000.0001) %MON dynstat_uvel_sd              =   1.2730549242438E-09
(PID.TID 0000.0001) %MON dynstat_uvel_del2            =   7.6345563757132E-14
(PID.TID 0000.0001) %MON dynstat_vvel_max             =   4.1877832345930E-09
(PID.TID 0000.0001) %MON dynstat_vvel_min             =  -5.3309248202139E-09
(PID.TID 0000.0001) %MON dynstat_vvel_mean            =  -7.3824560317984E-15
(PID.TID 0000.0001) %MON dynstat_vvel_sd              =   1.9612781077201E-09
(PID.TID 0000.0001) %MON dynstat_vvel_del2            =   1.3539306338847E-13
(PID.TID 0000.0001) %MON dynstat_wvel_max             =   9.7584007652252E-15
(PID.TID 0000.0001) %MON dynstat_wvel_min             =  -1.3536004450643E-14
(PID.TID 0000.0001) %MON dynstat_wvel_mean            =  -2.5926610612325E-28
(PID.TID 0000.0001) %MON dynstat_wvel_sd              =   5.9588961025809E-15
(PID.TID 0000.0001) %MON dynstat_wvel_del2            =   4.4063069737132E-20
(PID.TID 0000.0001) %MON dynstat_theta_max            =   2.0000000000000E+01
(PID.TID 0000.0001) %MON dynstat_theta_min            =   2.0000000000000E+01
(PID.TID 0000.0001) %MON dynstat_theta_mean           =   2.0000000000000E+01
(PID.TID 0000.0001) %MON dynstat_theta_sd             =   0.0000000000000E+00
(PID.TID 0000.0001) %MON dynstat_theta_del2           =   0.0000000000000E+00
(PID.TID 0000.0001) %MON dynstat_salt_max             =   3.0000000000000E+01
(PID.TID 0000.0001) %MON dynstat_salt_min             =   3.0000000000000E+01
(PID.TID 0000.0001) %MON dynstat_salt_mean            =   3.0000000000000E+01
(PID.TID 0000.0001) %MON dynstat_salt_sd              =   0.0000000000000E+00
(PID.TID 0000.0001) %MON dynstat_salt_del2            =   0.0000000000000E+00
(PID.TID 0000.0001) %MON trAdv_CFL_u_max              =   4.3386727489582E-09
(PID.TID 0000.0001) %MON trAdv_CFL_v_max              =   5.7682811430041E-09
(PID.TID 0000.0001) %MON trAdv_CFL_w_max              =   1.0569287528583E-14
(PID.TID 0000.0001) %MON advcfl_uvel_max              =   4.3377221230922E-09
(PID.TID 0000.0001) %MON advcfl_vvel_max              =   5.7573988058310E-09
(PID.TID 0000.0001) %MON advcfl_wvel_max              =   2.9237769613388E-14
(PID.TID 0000.0001) %MON advcfl_W_hf_max              =   0.0000000000000E+00
(PID.TID 0000.0001) %MON pe_b_mean                    =   6.2958458320177E-21
(PID.TID 0000.0001) %MON ke_max                       =   1.4379099790450E-17
(PID.TID 0000.0001) %MON ke_mean                      =   2.7225279987495E-18
(PID.TID 0000.0001) %MON ke_vol                       =   7.5645000000000E+15
(PID.TID 0000.0001) %MON vort_r_min                   =  -2.3397741162894E-13
(PID.TID 0000.0001) %MON vort_r_max                   =   2.4875667412126E-13
(PID.TID 0000.0001) %MON vort_a_mean                  =   8.2300000000000E-05
(PID.TID 0000.0001) %MON vort_a_sd                    =   7.1297555115547E-06
(PID.TID 0000.0001) %MON vort_p_mean                  =   8.3303658536586E-05
(PID.TID 0000.0001) %MON vort_p_sd                    =   1.7411470229938E-05
(PID.TID 0000.0001) %MON surfExpan_theta_mean         =  -5.1628505718417E-27
(PID.TID 0000.0001) %MON surfExpan_salt_mean          =  -7.7153238080500E-27
(PID.TID 0000.0001) // =======================================================
(PID.TID 0000.0001) // End MONITOR dynamic field statistics
(PID.TID 0000.0001) // =======================================================
 cg2d: Sum(rhs),rhsMax =  -6.18515909924240E-03  6.57076504846853E-10
 cg2d: Sum(rhs),rhsMax =  -6.15301289693824E-03  6.60509391660596E-10
 cg2d: Sum(rhs),rhsMax =  -6.12167671227209E-03  6.63890481939353E-10
 cg2d: Sum(rhs),rhsMax =  -6.09113767335110E-03  6.67219034226629E-10
 cg2d: Sum(rhs),rhsMax =  -6.06138335207966E-03  6.70494316151330E-10
 cg2d: Sum(rhs),rhsMax =  -6.03240173615712E-03  6.73715603958382E-10
 cg2d: Sum(rhs),rhsMax =  -6.00418117355520E-03  6.76882183065438E-10
 cg2d: Sum(rhs),rhsMax =  -5.97671045012779E-03  6.79993348096958E-10
 cg2d: Sum(rhs),rhsMax =  -5.94997867324207E-03  6.83048402985080E-10
 cg2d: Sum(rhs),rhsMax =  -5.92397534926611E-03  6.86046661196030E-10
 cg2d: Sum(rhs),rhsMax =  -5.89869034582964E-03  6.88987445757548E-10
 cg2d: Sum(rhs),rhsMax =  -5.87411384781855E-03  6.91870089509625E-10
 cg2d: Sum(rhs),rhsMax =  -5.85023640315003E-03  6.94693935124599E-10
 cg2d: Sum(rhs),rhsMax =  -5.82704892110743E-03  6.97458335280362E-10
 cg2d: Sum(rhs),rhsMax =  -5.80454256191572E-03  7.00162653004340E-10
 cg2d: Sum(rhs),rhsMax =  -5.78270889238155E-03  7.02806261419680E-10
(PID.TID 0000.0001)      cg2d_init_res =   2.38484307475687E-01
(PID.TID 0000.0001)      cg2d_iters(min,last) =      -1     545
(PID.TID 0000.0001)      cg2d_last_res =   9.74995662393211E-08
(PID.TID 0000.0001) // =======================================================
(PID.TID 0000.0001) // Begin MONITOR dynamic field statistics
(PID.TID 0000.0001) // =======================================================
(PID.TID 0000.0001) %MON time_tsnumber                =                  2368
(PID.TID 0000.0001) %MON time_secondsf                =   1.2787200000000E+07
(PID.TID 0000.0001) %MON dynstat_eta_max              =   6.2081655352868E-09
(PID.TID 0000.0001) %MON dynstat_eta_min              =  -4.8842148514710E-09
(PID.TID 0000.0001) %MON dynstat_eta_mean             =   3.9166454819914E-13
(PID.TID 0000.0001) %MON dynstat_eta_sd               =   2.5204965217633E-09
(PID.TID 0000.0001) %MON dynstat_eta_del2             =   2.7435236417070E-14
(PID.TID 0000.0001) %MON dynstat_uvel_max             =   3.9691860291217E-09
(PID.TID 0000.0001) %MON dynstat_uvel_min             =  -3.3152771879861E-09
(PID.TID 0000.0001) %MON dynstat_uvel_mean            =  -2.0299127902353E-13
(PID.TID 0000.0001) %MON dynstat_uvel_sd              =   1.2193323219140E-09
(PID.TID 0000.0001) %MON dynstat_uvel_del2            =   7.6588392211892E-14
(PID.TID 0000.0001) %MON dynstat_vvel_max             =   4.5044305449882E-09
(PID.TID 0000.0001) %MON dynstat_vvel_min             =  -5.1379279524862E-09
(PID.TID 0000.0001) %MON dynstat_vvel_mean            =  -1.1496931896950E-15
(PID.TID 0000.0001) %MON dynstat_vvel_sd              =   1.9676569809752E-09
(PID.TID 0000.0001) %MON dynstat_vvel_del2            =   1.3498449971842E-13
(PID.TID 0000.0001) %MON dynstat_wvel_max             =   9.2003341300995E-15
(PID.TID 0000.0001) %MON dynstat_wvel_min             =  -1.3439720883968E-14
(PID.TID 0000.0001) %MON dynstat_wvel_mean            =   2.5104409273771E-28
(PID.TID 0000.0001) %MON dynstat_wvel_sd              =   5.9304561068794E-15
(PID.TID 0000.0001) %MON dynstat_wvel_del2            =   4.3216390712546E-20
(PID.TID 0000.0001) %MON dynstat_theta_max            =   2.0000000000000E+01
(PID.TID 0000.0001) %MON dynstat_theta_min            =   2.0000000000000E+01
(PID.TID 0000.0001) %MON dynstat_theta_mean           =   2.0000000000000E+01
(PID.TID 0000.0001) %MON dynstat_theta_sd             =   0.0000000000000E+00
(PID.TID 0000.0001) %MON dynstat_theta_del2           =   0.0000000000000E+00
(PID.TID 0000.0001) %MON dynstat_salt_max             =   3.0000000000000E+01
(PID.TID 0000.0001) %MON dynstat_salt_min             =   3.0000000000000E+01
(PID.TID 0000.0001) %MON dynstat_salt_mean            =   3.0000000000000E+01
(PID.TID 0000.0001) %MON dynstat_salt_sd              =   0.0000000000000E+00
(PID.TID 0000.0001) %MON dynstat_salt_del2            =   0.0000000000000E+00
(PID.TID 0000.0001) %MON trAdv_CFL_u_max              =   4.2919906252979E-09
(PID.TID 0000.0001) %MON trAdv_CFL_v_max              =   5.5638117713889E-09
(PID.TID 0000.0001) %MON trAdv_CFL_w_max              =   9.9787596559819E-15
(PID.TID 0000.0001) %MON advcfl_uvel_max              =   4.2867209114514E-09
(PID.TID 0000.0001) %MON advcfl_vvel_max              =   5.5489621886851E-09
(PID.TID 0000.0001) %MON advcfl_wvel_max              =   2.9029797109370E-14
(PID.TID 0000.0001) %MON advcfl_W_hf_max              =   0.0000000000000E+00
(PID.TID 0000.0001) %MON pe_b_mean                    =   6.2321977150992E-21
(PID.TID 0000.0001) %MON ke_max                       =   1.3548567690027E-17
(PID.TID 0000.0001) %MON ke_mean                      =   2.6683315245459E-18
(PID.TID 0000.0001) %MON ke_vol                       =   7.5645000000000E+15
(PID.TID 0000.0001) %MON vort_r_min                   =  -2.2928837689596E-13
(PID.TID 0000.0001) %MON vort_r_max                   =   2.7137728778607E-13
(PID.TID 0000.0001) %MON vort_a_mean                  =   8.2300000000000E-05
(PID.TID 0000.0001) %MON vort_a_sd                    =   7.1297555115560E-06
(PID.TID 0000.0001) %MON vort_p_mean                  =   8.3303658536586E-05
(PID.TID 0000.0001) %MON vort_p_sd                    =   1.7411470229863E-05
(PID.TID 0000.0001) %MON surfExpan_theta_mean         =   5.0857136904719E-27
(PID.TID 0000.0001) %MON surfExpan_salt_mean          =   7.5979432038640E-27
(PID.TID 0000.0001) // =======================================================
(PID.TID 0000.0001) // End MONITOR dynamic field statistics
(PID.TID 0000.0001) // =======================================================
 cg2d: Sum(rhs),rhsMax =  -5.76153971169962E-03  7.05388543707047E-10
 cg2d: Sum(rhs),rhsMax =  -5.74102719446499E-03  7.07908894035476E-10
 cg2d: Sum(rhs),rhsMax =  -5.72116374972222E-03  7.10366717593220E-10
 cg2d: Sum(rhs),rhsMax =  -5.70194211109876E-03  7.12761429458413E-10
 cg2d: Sum(rhs),rhsMax =  -5.68335530497176E-03  7.15092456055881E-10
 cg2d: Sum(rhs),rhsMax =  -5.66539662853222E-03  7.17359234703003E-10
 cg2d: Sum(rhs),rhsMax =  -5.64805969410143E-03  7.19561214033159E-10
 cg2d: Sum(rhs),rhsMax =  -5.63133834791244E-03  7.21697853078386E-10
 cg2d: Sum(rhs),rhsMax =  -5.61522670781703E-03  7.23768623945298E-10
 cg2d: Sum(rhs),rhsMax =  -5.59971916358194E-03  7.25773007684512E-10
 cg2d: Sum(rhs),rhsMax =  -5.58481034280485E-03  7.27710499077001E-10
 cg2d: Sum(rhs),rhsMax =  -5.57049515425203E-03  7.29580603473362E-10
 cg2d: Sum(rhs),rhsMax =  -5.55676877780510E-03  7.31382837974885E-10
 cg2d: Sum(rhs),rhsMax =  -5.54362660099094E-03  7.33116732258695E-10
 cg2d: Sum(rhs),rhsMax =  -5.53106426820545E-03  7.34781827079501E-10
 cg2d: Sum(rhs),rhsMax =  -5.51907769400850E-03  7.36377675458591E-10
(PID.TID 0000.0001)      cg2d_init_res =   2.23944204657396E-01
(PID.TID 0000.0001)      cg2d_iters(min,last) =      -1     539
(PID.TID 0000.0001)      cg2d_last_res =   9.64503810958193E-08
(PID.TID 0000.0001) // =======================================================
(PID.TID 0000.0001) // Begin MONITOR dynamic field statistics
(PID.TID 0000.0001) // =======================================================
(PID.TID 0000.0001) %MON time_tsnumber                =                  2384
(PID.TID 0000.0001) %MON time_secondsf                =   1.2873600000000E+07
(PID.TID 0000.0001) %MON dynstat_eta_max              =   5.7202109290711E-09
(PID.TID 0000.0001) %MON dynstat_eta_min              =  -4.9954967533534E-09
(PID.TID 0000.0001) %MON dynstat_eta_mean             =   3.9166470075444E-13
(PID.TID 0000.0001) %MON dynstat_eta_sd               =   2.5032851312647E-09
(PID.TID 0000.0001) %MON dynstat_eta_del2             =   2.7608691933814E-14
(PID.TID 0000.0001) %MON dynstat_uvel_max             =   3.8614619765234E-09
(PID.TID 0000.0001) %MON dynstat_uvel_min             =  -2.8783520188340E-09
(PID.TID 0000.0001) %MON dynstat_uvel_mean            =  -1.5136463989897E-13
(PID.TID 0000.0001) %MON dynstat_uvel_sd              =   1.1628857729196E-09
(PID.TID 0000.0001) %MON dynstat_uvel_del2            =   7.8195541105387E-14
(PID.TID 0000.0001) %MON dynstat_vvel_max             =   4.7267684997308E-09
(PID.TID 0000.0001) %MON dynstat_vvel_min             =  -4.9088745997827E-09
(PID.TID 0000.0001) %MON dynstat_vvel_mean            =   4.6399192196306E-15
(PID.TID 0000.0001) %MON dynstat_vvel_sd              =   1.9739211616169E-09
(PID.TID 0000.0001) %MON dynstat_vvel_del2            =   1.3275870269420E-13
(PID.TID 0000.0001) %MON dynstat_wvel_max             =   8.4799231253596E-15
(PID.TID 0000.0001) %MON dynstat_wvel_min             =  -1.3933328587012E-14
(PID.TID 0000.0001) %MON dynstat_wvel_mean            =   2.5154264371091E-28
(PID.TID 0000.0001) %MON dynstat_wvel_sd              =   5.9058839301565E-15
(PID.TID 0000.0001) %MON dynstat_wvel_del2            =   4.2356338074376E-20
(PID.TID 0000.0001) %MON dynstat_theta_max            =   2.0000000000000E+01
(PID.TID 0000.0001) %MON dynstat_theta_min            =   2.0000000000000E+01
(PID.TID 0000.0001) %MON dynstat_theta_mean           =   2.0000000000000E+01
(PID.TID 0000.0001) %MON dynstat_theta_sd             =   0.0000000000000E+00
(PID.TID 0000.0001) %MON dynstat_theta_del2           =   0.0000000000000E+00
(PID.TID 0000.0001) %MON dynstat_salt_max             =   3.0000000000000E+01
(PID.TID 0000.0001) %MON dynstat_salt_min             =   3.0000000000000E+01
(PID.TID 0000.0001) %MON dynstat_salt_mean            =   3.0000000000000E+01
(PID.TID 0000.0001) %MON dynstat_salt_sd              =   0.0000000000000E+00
(PID.TID 0000.0001) %MON dynstat_salt_del2            =   0.0000000000000E+00
(PID.TID 0000.0001) %MON trAdv_CFL_u_max              =   4.1796639818807E-09
(PID.TID 0000.0001) %MON trAdv_CFL_v_max              =   5.3176921184755E-09
(PID.TID 0000.0001) %MON trAdv_CFL_w_max              =   9.2095965617656E-15
(PID.TID 0000.0001) %MON advcfl_uvel_max              =   4.1703789346452E-09
(PID.TID 0000.0001) %MON advcfl_vvel_max              =   5.3015845677653E-09
(PID.TID 0000.0001) %MON advcfl_wvel_max              =   3.0095989747947E-14
(PID.TID 0000.0001) %MON advcfl_W_hf_max              =   0.0000000000000E+00
(PID.TID 0000.0001) %MON pe_b_mean                    =   6.1473743063779E-21
(PID.TID 0000.0001) %MON ke_max                       =   1.2592320825565E-17
(PID.TID 0000.0001) %MON ke_mean                      =   2.6136660234499E-18
(PID.TID 0000.0001) %MON ke_vol                       =   7.5645000000000E+15
(PID.TID 0000.0001) %MON vort_r_min                   =  -2.1639964035947E-13
(PID.TID 0000.0001) %MON vort_r_max                   =   2.8861794752861E-13
(PID.TID 0000.0001) %MON vort_a_mean                  =   8.2300000000000E-05
(PID.TID 0000.0001) %MON vort_a_sd                    =   7.1297555115523E-06
(PID.TID 0000.0001) %MON vort_p_mean                  =   8.3303658536586E-05
(PID.TID 0000.0001) %MON vort_p_sd                    =   1.7411470229771E-05
(PID.TID 0000.0001) %MON surfExpan_theta_mean         =   4.9837942789324E-27
(PID.TID 0000.0001) %MON surfExpan_salt_mean          =   7.4658018090521E-27
(PID.TID 0000.0001) // =======================================================
(PID.TID 0000.0001) // End MONITOR dynamic field statistics
(PID.TID 0000.0001) // =======================================================
 cg2d: Sum(rhs),rhsMax =  -5.50766299956892E-03  7.37903842551528E-10
 cg2d: Sum(rhs),rhsMax =  -5.49672279655407E-03  7.39372521743331E-10
 cg2d: Sum(rhs),rhsMax =  -5.48615157906107E-03  7.40797231014570E-10
 cg2d: Sum(rhs),rhsMax =  -5.47614234523666E-03  7.42151269020563E-10
 cg2d: Sum(rhs),rhsMax =  -5.46669200038196E-03  7.43434253600793E-10
 cg2d: Sum(rhs),rhsMax =  -5.45779764522908E-03  7.44645814162309E-10
 cg2d: Sum(rhs),rhsMax =  -5.44945663678064E-03  7.45785593337374E-10
 cg2d: Sum(rhs),rhsMax =  -5.44166656254645E-03  7.46853246151080E-10
 cg2d: Sum(rhs),rhsMax =  -5.43442520537629E-03  7.47848440275908E-10
 cg2d: Sum(rhs),rhsMax =  -5.42773059826148E-03  7.48770856996576E-10
 cg2d: Sum(rhs),rhsMax =  -5.42158101461953E-03  7.49620187892648E-10
 cg2d: Sum(rhs),rhsMax =  -5.41597490480987E-03  7.50396139522371E-10
 cg2d: Sum(rhs),rhsMax =  -5.41091096401478E-03  7.51098431079769E-10
 cg2d: Sum(rhs),rhsMax =  -5.40638812556239E-03  7.51726794186012E-10
 cg2d: Sum(rhs),rhsMax =  -5.40240552075164E-03  7.52280973563718E-10
 cg2d: Sum(rhs),rhsMax =  -5.39896252138140E-03  7.52760727107723E-10
(PID.TID 0000.0001)      cg2d_init_res =   2.16843933308321E-01
(PID.TID 0000.0001)      cg2d_iters(min,last) =      -1     533
(PID.TID 0000.0001)      cg2d_last_res =   9.26430720362358E-08
(PID.TID 0000.0001) // =======================================================
(PID.TID 0000.0001) // Begin MONITOR dynamic field statistics
(PID.TID 0000.0001) // =======================================================
(PID.TID 0000.0001) %MON time_tsnumber                =                  2400
(PID.TID 0000.0001) %MON time_secondsf                =   1.2960000000000E+07
(PID.TID 0000.0001) %MON dynstat_eta_max              =   5.1000694660430E-09
(PID.TID 0000.0001) %MON dynstat_eta_min              =  -5.0240502265742E-09
(PID.TID 0000.0001) %MON dynstat_eta_mean             =   3.9166482903235E-13
(PID.TID 0000.0001) %MON dynstat_eta_sd               =   2.4816257163648E-09
(PID.TID 0000.0001) %MON dynstat_eta_del2             =   2.7715801721838E-14
(PID.TID 0000.0001) %MON dynstat_uvel_max             =   3.6988539370543E-09
(PID.TID 0000.0001) %MON dynstat_uvel_min             =  -2.5779014444004E-09
(PID.TID 0000.0001) %MON dynstat_uvel_mean            =  -9.2447965362823E-14
(PID.TID 0000.0001) %MON dynstat_uvel_sd              =   1.1115124664726E-09
(PID.TID 0000.0001) %MON dynstat_uvel_del2            =   8.0869358482666E-14
(PID.TID 0000.0001) %MON dynstat_vvel_max             =   4.9925694620382E-09
(PID.TID 0000.0001) %MON dynstat_vvel_min             =  -4.6517341970776E-09
(PID.TID 0000.0001) %MON dynstat_vvel_mean            =   9.7818892802484E-15
(PID.TID 0000.0001) %MON dynstat_vvel_sd              =   1.9756929712286E-09
(PID.TID 0000.0001) %MON dynstat_vvel_del2            =   1.2894308801278E-13
(PID.TID 0000.0001) %MON dynstat_wvel_max             =   7.7621136279626E-15
(PID.TID 0000.0001) %MON dynstat_wvel_min             =  -1.4242455911306E-14
(PID.TID 0000.0001) %MON dynstat_wvel_mean            =  -7.8172130423962E-29
(PID.TID 0000.0001) %MON dynstat_wvel_sd              =   5.8875323083866E-15
(PID.TID 0000.0001) %MON dynstat_wvel_del2            =   4.1596017925873E-20
(PID.TID 0000.0001) %MON dynstat_theta_max            =   2.0000000000000E+01
(PID.TID 0000.0001) %MON dynstat_theta_min            =   2.0000000000000E+01
(PID.TID 0000.0001) %MON dynstat_theta_mean           =   2.0000000000000E+01
(PID.TID 0000.0001) %MON dynstat_theta_sd             =   0.0000000000000E+00
(PID.TID 0000.0001) %MON dynstat_theta_del2           =   0.0000000000000E+00
(PID.TID 0000.0001) %MON dynstat_salt_max             =   3.0000000000000E+01
(PID.TID 0000.0001) %MON dynstat_salt_min             =   3.0000000000000E+01
(PID.TID 0000.0001) %MON dynstat_salt_mean            =   3.0000000000000E+01
(PID.TID 0000.0001) %MON dynstat_salt_sd              =   0.0000000000000E+00
(PID.TID 0000.0001) %MON dynstat_salt_del2            =   0.0000000000000E+00
(PID.TID 0000.0001) %MON trAdv_CFL_u_max              =   4.0074730025132E-09
(PID.TID 0000.0001) %MON trAdv_CFL_v_max              =   5.3748375847268E-09
(PID.TID 0000.0001) %MON trAdv_CFL_w_max              =   8.4003979408553E-15
(PID.TID 0000.0001) %MON advcfl_uvel_max              =   3.9947622520187E-09
(PID.TID 0000.0001) %MON advcfl_vvel_max              =   5.3919750190012E-09
(PID.TID 0000.0001) %MON advcfl_wvel_max              =   3.0763704768422E-14
(PID.TID 0000.0001) %MON advcfl_W_hf_max              =   0.0000000000000E+00
(PID.TID 0000.0001) %MON pe_b_mean                    =   6.0414554888835E-21
(PID.TID 0000.0001) %MON ke_max                       =   1.2462710492336E-17
(PID.TID 0000.0001) %MON ke_mean                      =   2.5589665826026E-18
(PID.TID 0000.0001) %MON ke_vol                       =   7.5645000000000E+15
(PID.TID 0000.0001) %MON vort_r_min                   =  -1.9593706546768E-13
(PID.TID 0000.0001) %MON vort_r_max                   =   2.9930503911751E-13
(PID.TID 0000.0001) %MON vort_a_mean                  =   8.2300000000000E-05
(PID.TID 0000.0001) %MON vort_a_sd                    =   7.1297555115581E-06
(PID.TID 0000.0001) %MON vort_p_mean                  =   8.3303658536585E-05
(PID.TID 0000.0001) %MON vort_p_sd                    =   1.7411470229673E-05
(PID.TID 0000.0001) %MON surfExpan_theta_mean         =  -1.7185838843468E-27
(PID.TID 0000.0001) %MON surfExpan_salt_mean          =  -2.5106730644573E-27
(PID.TID 0000.0001) // =======================================================
(PID.TID 0000.0001) // End MONITOR dynamic field statistics
(PID.TID 0000.0001) // =======================================================
 cg2d: Sum(rhs),rhsMax =  -5.39605872085810E-03  7.53165825663832E-10
 cg2d: Sum(rhs),rhsMax =  -5.39369393096398E-03  7.53496053350829E-10
 cg2d: Sum(rhs),rhsMax =  -5.39186819055687E-03  7.53751207338529E-10
 cg2d: Sum(rhs),rhsMax =  -5.39058176182570E-03  7.53931098139327E-10
 cg2d: Sum(rhs),rhsMax =  -5.38983513514357E-03  7.54035549410834E-10
 cg2d: Sum(rhs),rhsMax =  -5.38962903249641E-03  7.54064398206882E-10
 cg2d: Sum(rhs),rhsMax =  -5.38996439321223E-03  7.54017494814277E-10
 cg2d: Sum(rhs),rhsMax =  -5.39084240620254E-03  7.53894702956533E-10
 cg2d: Sum(rhs),rhsMax =  -5.39226447189371E-03  7.53695899669789E-10
 cg2d: Sum(rhs),rhsMax =  -5.39423222493508E-03  7.53420975485466E-10
 cg2d: Sum(rhs),rhsMax =  -5.39667066888887E-03  7.53080561972292E-10
 cg2d: Sum(rhs),rhsMax =  -5.39938727568295E-03  7.52701677984623E-10
 cg2d: Sum(rhs),rhsMax =  -5.40265283402915E-03  7.52246732312193E-10
 cg2d: Sum(rhs),rhsMax =  -5.40646973943984E-03  7.51715669803062E-10
 cg2d: Sum(rhs),rhsMax =  -5.41084061768206E-03  7.51108448855794E-10
 cg2d: Sum(rhs),rhsMax =  -5.41576835888677E-03  7.50425041381834E-10
(PID.TID 0000.0001)      cg2d_init_res =   2.16997499744113E-01
(PID.TID 0000.0001)      cg2d_iters(min,last) =      -1     537
(PID.TID 0000.0001)      cg2d_last_res =   9.22666715528149E-08
(PID.TID 0000.0001) // =======================================================
(PID.TID 0000.0001) // Begin MONITOR dynamic field statistics
(PID.TID 0000.0001) // =======================================================
(PID.TID 0000.0001) %MON time_tsnumber                =                  2416
(PID.TID 0000.0001) %MON time_secondsf                =   1.3046400000000E+07
(PID.TID 0000.0001) %MON dynstat_eta_max              =   5.2408585708330E-09
(PID.TID 0000.0001) %MON dynstat_eta_min              =  -4.9782914395243E-09
(PID.TID 0000.0001) %MON dynstat_eta_mean             =   3.9166495045620E-13
(PID.TID 0000.0001) %MON dynstat_eta_sd               =   2.4560743776115E-09
(PID.TID 0000.0001) %MON dynstat_eta_del2             =   2.7721319107933E-14
(PID.TID 0000.0001) %MON dynstat_uvel_max             =   3.4910524409434E-09
(PID.TID 0000.0001) %MON dynstat_uvel_min             =  -2.8880620809219E-09
(PID.TID 0000.0001) %MON dynstat_uvel_mean            =  -2.9314985427135E-14
(PID.TID 0000.0001) %MON dynstat_uvel_sd              =   1.0728630489564E-09
(PID.TID 0000.0001) %MON dynstat_uvel_del2            =   8.4111740618784E-14
(PID.TID 0000.0001) %MON dynstat_vvel_max             =   5.1863054488486E-09
(PID.TID 0000.0001) %MON dynstat_vvel_min             =  -4.6188555911365E-09
(PID.TID 0000.0001) %MON dynstat_vvel_mean            =   1.4114273147398E-14
(PID.TID 0000.0001) %MON dynstat_vvel_sd              =   1.9695026995858E-09
(PID.TID 0000.0001) %MON dynstat_vvel_del2            =   1.2393211490774E-13
(PID.TID 0000.0001) %MON dynstat_wvel_max             =   7.4168697022925E-15
(PID.TID 0000.0001) %MON dynstat_wvel_min             =  -1.4314382202896E-14
(PID.TID 0000.0001) %MON dynstat_wvel_mean            =   1.9261675369998E-28
(PID.TID 0000.0001) %MON dynstat_wvel_sd              =   5.8757691295570E-15
(PID.TID 0000.0001) %MON dynstat_wvel_del2            =   4.1036565615786E-20
(PID.TID 0000.0001) %MON dynstat_theta_max            =   2.0000000000000E+01
(PID.TID 0000.0001) %MON dynstat_theta_min            =   2.0000000000000E+01
(PID.TID 0000.0001) %MON dynstat_theta_mean           =   2.0000000000000E+01
(PID.TID 0000.0001) %MON dynstat_theta_sd             =   0.0000000000000E+00
(PID.TID 0000.0001) %MON dynstat_theta_del2           =   0.0000000000000E+00
(PID.TID 0000.0001) %MON dynstat_salt_max             =   3.0000000000000E+01
(PID.TID 0000.0001) %MON dynstat_salt_min             =   3.0000000000000E+01
(PID.TID 0000.0001) %MON dynstat_salt_mean            =   3.0000000000000E+01
(PID.TID 0000.0001) %MON dynstat_salt_sd              =   0.0000000000000E+00
(PID.TID 0000.0001) %MON dynstat_salt_del2            =   0.0000000000000E+00
(PID.TID 0000.0001) %MON trAdv_CFL_u_max              =   3.7857177110415E-09
(PID.TID 0000.0001) %MON trAdv_CFL_v_max              =   5.5919077132304E-09
(PID.TID 0000.0001) %MON trAdv_CFL_w_max              =   8.0381819204778E-15
(PID.TID 0000.0001) %MON advcfl_uvel_max              =   3.7703366362189E-09
(PID.TID 0000.0001) %MON advcfl_vvel_max              =   5.6012098847565E-09
(PID.TID 0000.0001) %MON advcfl_wvel_max              =   3.0919065558255E-14
(PID.TID 0000.0001) %MON advcfl_W_hf_max              =   0.0000000000000E+00
(PID.TID 0000.0001) %MON pe_b_mean                    =   5.9176877732276E-21
(PID.TID 0000.0001) %MON ke_max                       =   1.3441825224712E-17
(PID.TID 0000.0001) %MON ke_mean                      =   2.5047644748066E-18
(PID.TID 0000.0001) %MON ke_vol                       =   7.5645000000000E+15
(PID.TID 0000.0001) %MON vort_r_min                   =  -1.6968322232620E-13
(PID.TID 0000.0001) %MON vort_r_max                   =   3.0291001499172E-13
(PID.TID 0000.0001) %MON vort_a_mean                  =   8.2300000000001E-05
(PID.TID 0000.0001) %MON vort_a_sd                    =   7.1297555115526E-06
(PID.TID 0000.0001) %MON vort_p_mean                  =   8.3303658536586E-05
(PID.TID 0000.0001) %MON vort_p_sd                    =   1.7411470229562E-05
(PID.TID 0000.0001) %MON surfExpan_theta_mean         =   3.6732463599230E-27
(PID.TID 0000.0001) %MON surfExpan_salt_mean          =   5.5871410708834E-27
(PID.TID 0000.0001) // =======================================================
(PID.TID 0000.0001) // End MONITOR dynamic field statistics
(PID.TID 0000.0001) // =======================================================
 cg2d: Sum(rhs),rhsMax =  -5.42125608159272E-03  7.49665431995729E-10
 cg2d: Sum(rhs),rhsMax =  -5.42730717450898E-03  7.48829620572389E-10
 cg2d: Sum(rhs),rhsMax =  -5.43392529843606E-03  7.47917618518368E-10
 cg2d: Sum(rhs),rhsMax =  -5.44111435078672E-03  7.46929451796245E-10
 cg2d: Sum(rhs),rhsMax =  -5.44887853572968E-03  7.45865158158715E-10
 cg2d: Sum(rhs),rhsMax =  -5.45722230564770E-03  7.44724790341758E-10
 cg2d: Sum(rhs),rhsMax =  -5.46615040137098E-03  7.43508414261859E-10
 cg2d: Sum(rhs),rhsMax =  -5.47566786944492E-03  7.42216108285264E-10
 cg2d: Sum(rhs),rhsMax =  -5.48578004251711E-03  7.40847965002889E-10
 cg2d: Sum(rhs),rhsMax =  -5.49649254060304E-03  7.39404090033701E-10
 cg2d: Sum(rhs),rhsMax =  -5.50781130311237E-03  7.37884602330259E-10
 cg2d: Sum(rhs),rhsMax =  -5.51974257767602E-03  7.36289634114734E-10
 cg2d: Sum(rhs),rhsMax =  -5.53229292131433E-03  7.34619330568298E-10
 cg2d: Sum(rhs),rhsMax =  -5.54546925068674E-03  7.32873851067582E-10
 cg2d: Sum(rhs),rhsMax =  -5.55897475945794E-03  7.31093352098492E-10
 cg2d: Sum(rhs),rhsMax =  -5.57298443191203E-03  7.29255504411621E-10
(PID.TID 0000.0001)      cg2d_init_res =   2.24558410205794E-01
(PID.TID 0000.0001)      cg2d_iters(min,last) =      -1     541
(PID.TID 0000.0001)      cg2d_last_res =   9.70909649130032E-08
(PID.TID 0000.0001) // =======================================================
(PID.TID 0000.0001) // Begin MONITOR dynamic field statistics
(PID.TID 0000.0001) // =======================================================
(PID.TID 0000.0001) %MON time_tsnumber                =                  2432
(PID.TID 0000.0001) %MON time_secondsf                =   1.3132800000000E+07
(PID.TID 0000.0001) %MON dynstat_eta_max              =   5.3308118495110E-09
(PID.TID 0000.0001) %MON dynstat_eta_min              =  -4.8789681668608E-09
(PID.TID 0000.0001) %MON dynstat_eta_mean             =   3.9166508337217E-13
(PID.TID 0000.0001) %MON dynstat_eta_sd               =   2.4278529335940E-09
(PID.TID 0000.0001) %MON dynstat_eta_del2             =   2.7601536326269E-14
(PID.TID 0000.0001) %MON dynstat_uvel_max             =   3.2480957798817E-09
(PID.TID 0000.0001) %MON dynstat_uvel_min             =  -3.2559461873161E-09
(PID.TID 0000.0001) %MON dynstat_uvel_mean            =   3.4763611068602E-14
(PID.TID 0000.0001) %MON dynstat_uvel_sd              =   1.0525398889534E-09
(PID.TID 0000.0001) %MON dynstat_uvel_del2            =   8.7366088323229E-14
(PID.TID 0000.0001) %MON dynstat_vvel_max             =   5.2595530693753E-09
(PID.TID 0000.0001) %MON dynstat_vvel_min             =  -4.5637501000159E-09
(PID.TID 0000.0001) %MON dynstat_vvel_mean            =   1.7523943489222E-14
(PID.TID 0000.0001) %MON dynstat_vvel_sd              =   1.9533087267291E-09
(PID.TID 0000.0001) %MON dynstat_vvel_del2            =   1.1826877956811E-13
(PID.TID 0000.0001) %MON dynstat_wvel_max             =   7.8700686917399E-15
(PID.TID 0000.0001) %MON dynstat_wvel_min             =  -1.4132619428064E-14
(PID.TID 0000.0001) %MON dynstat_wvel_mean            =   1.7737682269874E-28
(PID.TID 0000.0001) %MON dynstat_wvel_sd              =   5.8686995813543E-15
(PID.TID 0000.0001) %MON dynstat_wvel_del2            =   4.0778845496961E-20
(PID.TID 0000.0001) %MON dynstat_theta_max            =   2.0000000000000E+01
(PID.TID 0000.0001) %MON dynstat_theta_min            =   2.0000000000000E+01
(PID.TID 0000.0001) %MON dynstat_theta_mean           =   2.0000000000000E+01
(PID.TID 0000.0001) %MON dynstat_theta_sd             =   0.0000000000000E+00
(PID.TID 0000.0001) %MON dynstat_theta_del2           =   0.0000000000000E+00
(PID.TID 0000.0001) %MON dynstat_salt_max             =   3.0000000000000E+01
(PID.TID 0000.0001) %MON dynstat_salt_min             =   3.0000000000000E+01
(PID.TID 0000.0001) %MON dynstat_salt_mean            =   3.0000000000000E+01
(PID.TID 0000.0001) %MON dynstat_salt_sd              =   0.0000000000000E+00
(PID.TID 0000.0001) %MON dynstat_salt_del2            =   0.0000000000000E+00
(PID.TID 0000.0001) %MON trAdv_CFL_u_max              =   3.5250683444986E-09
(PID.TID 0000.0001) %MON trAdv_CFL_v_max              =   5.6792063034523E-09
(PID.TID 0000.0001) %MON trAdv_CFL_w_max              =   8.4571830342828E-15
(PID.TID 0000.0001) %MON advcfl_uvel_max              =   3.5164218823014E-09
(PID.TID 0000.0001) %MON advcfl_vvel_max              =   5.6803173149253E-09
(PID.TID 0000.0001) %MON advcfl_wvel_max              =   3.0526457964619E-14
(PID.TID 0000.0001) %MON advcfl_W_hf_max              =   0.0000000000000E+00
(PID.TID 0000.0001) %MON pe_b_mean                    =   5.7824750901717E-21
(PID.TID 0000.0001) %MON ke_max                       =   1.3825565371140E-17
(PID.TID 0000.0001) %MON ke_mean                      =   2.4516209843722E-18
(PID.TID 0000.0001) %MON ke_vol                       =   7.5645000000000E+15
(PID.TID 0000.0001) %MON vort_r_min                   =  -1.8438887755574E-13
(PID.TID 0000.0001) %MON vort_r_max                   =   2.9900039282788E-13
(PID.TID 0000.0001) %MON vort_a_mean                  =   8.2300000000000E-05
(PID.TID 0000.0001) %MON vort_a_sd                    =   7.1297555115614E-06
(PID.TID 0000.0001) %MON vort_p_mean                  =   8.3303658536585E-05
(PID.TID 0000.0001) %MON vort_p_sd                    =   1.7411470229453E-05
(PID.TID 0000.0001) %MON surfExpan_theta_mean         =   3.4855274209191E-27
(PID.TID 0000.0001) %MON surfExpan_salt_mean          =   5.1534561707984E-27
(PID.TID 0000.0001) // =======================================================
(PID.TID 0000.0001) // End MONITOR dynamic field statistics
(PID.TID 0000.0001) // =======================================================
 cg2d: Sum(rhs),rhsMax =  -5.58763565773661E-03  7.27343354280346E-10
 cg2d: Sum(rhs),rhsMax =  -5.60293638551898E-03  7.25357111621983E-10
 cg2d: Sum(rhs),rhsMax =  -5.61889493402635E-03  7.23296999323000E-10
 cg2d: Sum(rhs),rhsMax =  -5.63551999841953E-03  7.21163252443178E-10
 cg2d: Sum(rhs),rhsMax =  -5.65282066381495E-03  7.18956120894956E-10
 cg2d: Sum(rhs),rhsMax =  -5.67080640756357E-03  7.16675865956241E-10
 cg2d: Sum(rhs),rhsMax =  -5.68948714736558E-03  7.14322761386437E-10
 cg2d: Sum(rhs),rhsMax =  -5.70887321413040E-03  7.11897093829577E-10
 cg2d: Sum(rhs),rhsMax =  -5.72897536719527E-03  7.09399162974022E-10
 cg2d: Sum(rhs),rhsMax =  -5.74980483160859E-03  7.06829281003706E-10
 cg2d: Sum(rhs),rhsMax =  -5.77137327763925E-03  7.04187772066660E-10
 cg2d: Sum(rhs),rhsMax =  -5.79369289640162E-03  7.01474973816777E-10
 cg2d: Sum(rhs),rhsMax =  -5.81677634635055E-03  6.98691235670075E-10
 cg2d: Sum(rhs),rhsMax =  -5.84063680026216E-03  6.95836919430783E-10
 cg2d: Sum(rhs),rhsMax =  -5.86490705249333E-03  6.92957406648948E-10
 cg2d: Sum(rhs),rhsMax =  -5.88980434363840E-03  6.90028159021432E-10
(PID.TID 0000.0001)      cg2d_init_res =   2.40244103013140E-01
(PID.TID 0000.0001)      cg2d_iters(min,last) =      -1     547
(PID.TID 0000.0001)      cg2d_last_res =   9.30567735266178E-08
(PID.TID 0000.0001) // =======================================================
(PID.TID 0000.0001) // Begin MONITOR dynamic field statistics
(PID.TID 0000.0001) // =======================================================
(PID.TID 0000.0001) %MON time_tsnumber                =                  2448
(PID.TID 0000.0001) %MON time_secondsf                =   1.3219200000000E+07
(PID.TID 0000.0001) %MON dynstat_eta_max              =   5.3567381830495E-09
(PID.TID 0000.0001) %MON dynstat_eta_min              =  -4.9219390003663E-09
(PID.TID 0000.0001) %MON dynstat_eta_mean             =   3.9166520334592E-13
(PID.TID 0000.0001) %MON dynstat_eta_sd               =   2.3987361168954E-09
(PID.TID 0000.0001) %MON dynstat_eta_del2             =   2.7346388314408E-14
(PID.TID 0000.0001) %MON dynstat_uvel_max             =   2.9754329583694E-09
(PID.TID 0000.0001) %MON dynstat_uvel_min             =  -3.5672006526045E-09
(PID.TID 0000.0001) %MON dynstat_uvel_mean            =   9.6496711527129E-14
(PID.TID 0000.0001) %MON dynstat_uvel_sd              =   1.0522670961603E-09
(PID.TID 0000.0001) %MON dynstat_uvel_del2            =   9.0131863062286E-14
(PID.TID 0000.0001) %MON dynstat_vvel_max             =   5.2077430365880E-09
(PID.TID 0000.0001) %MON dynstat_vvel_min             =  -4.4096234917620E-09
(PID.TID 0000.0001) %MON dynstat_vvel_mean            =   1.9950102482105E-14
(PID.TID 0000.0001) %MON dynstat_vvel_sd              =   1.9267697978871E-09
(PID.TID 0000.0001) %MON dynstat_vvel_del2            =   1.1260588807839E-13
(PID.TID 0000.0001) %MON dynstat_wvel_max             =   8.4254610344114E-15
(PID.TID 0000.0001) %MON dynstat_wvel_min             =  -1.3702009363237E-14
(PID.TID 0000.0001) %MON dynstat_wvel_mean            =  -2.1765116747201E-28
(PID.TID 0000.0001) %MON dynstat_wvel_sd              =   5.8624413167609E-15
(PID.TID 0000.0001) %MON dynstat_wvel_del2            =   4.0814922511071E-20
(PID.TID 0000.0001) %MON dynstat_theta_max            =   2.0000000000000E+01
(PID.TID 0000.0001) %MON dynstat_theta_min            =   2.0000000000000E+01
(PID.TID 0000.0001) %MON dynstat_theta_mean           =   2.0000000000000E+01
(PID.TID 0000.0001) %MON dynstat_theta_sd             =   0.0000000000000E+00
(PID.TID 0000.0001) %MON dynstat_theta_del2           =   0.0000000000000E+00
(PID.TID 0000.0001) %MON dynstat_salt_max             =   3.0000000000000E+01
(PID.TID 0000.0001) %MON dynstat_salt_min             =   3.0000000000000E+01
(PID.TID 0000.0001) %MON dynstat_salt_mean            =   3.0000000000000E+01
(PID.TID 0000.0001) %MON dynstat_salt_sd              =   0.0000000000000E+00
(PID.TID 0000.0001) %MON dynstat_salt_del2            =   0.0000000000000E+00
(PID.TID 0000.0001) %MON trAdv_CFL_u_max              =   3.8333423011940E-09
(PID.TID 0000.0001) %MON trAdv_CFL_v_max              =   5.6316297304087E-09
(PID.TID 0000.0001) %MON trAdv_CFL_w_max              =   9.0660046422109E-15
(PID.TID 0000.0001) %MON advcfl_uvel_max              =   3.8525767048128E-09
(PID.TID 0000.0001) %MON advcfl_vvel_max              =   5.6243624795151E-09
(PID.TID 0000.0001) %MON advcfl_wvel_max              =   2.9596340224591E-14
(PID.TID 0000.0001) %MON advcfl_W_hf_max              =   0.0000000000000E+00
(PID.TID 0000.0001) %MON pe_b_mean                    =   5.6446103447742E-21
(PID.TID 0000.0001) %MON ke_max                       =   1.3557869541109E-17
(PID.TID 0000.0001) %MON ke_mean                      =   2.4000577984312E-18
(PID.TID 0000.0001) %MON ke_vol                       =   7.5645000000000E+15
(PID.TID 0000.0001) %MON vort_r_min                   =  -1.9482727601874E-13
(PID.TID 0000.0001) %MON vort_r_max                   =   2.8768357403763E-13
(PID.TID 0000.0001) %MON vort_a_mean                  =   8.2299999999999E-05
(PID.TID 0000.0001) %MON vort_a_sd                    =   7.1297555115671E-06
(PID.TID 0000.0001) %MON vort_p_mean                  =   8.3303658536584E-05
(PID.TID 0000.0001) %MON vort_p_sd                    =   1.7411470229344E-05
(PID.TID 0000.0001) %MON surfExpan_theta_mean         =  -4.3710102555986E-27
(PID.TID 0000.0001) %MON surfExpan_salt_mean          =  -6.4954152448562E-27
(PID.TID 0000.0001) // =======================================================
(PID.TID 0000.0001) // End MONITOR dynamic field statistics
(PID.TID 0000.0001) // =======================================================
 cg2d: Sum(rhs),rhsMax =  -5.91550897868092E-03  6.87029792558114E-10
 cg2d: Sum(rhs),rhsMax =  -5.94203585140391E-03  6.83962713757840E-10
 cg2d: Sum(rhs),rhsMax =  -5.96940042719373E-03  6.80827341865307E-10
 cg2d: Sum(rhs),rhsMax =  -5.99761880354454E-03  6.77624107794339E-10
 cg2d: Sum(rhs),rhsMax =  -6.02670769788651E-03  6.74353454143886E-10
 cg2d: Sum(rhs),rhsMax =  -6.05668451285288E-03  6.71015834443083E-10
 cg2d: Sum(rhs),rhsMax =  -6.08756732283129E-03  6.67611715417399E-10
 cg2d: Sum(rhs),rhsMax =  -6.11937495601166E-03  6.64141573430940E-10
 cg2d: Sum(rhs),rhsMax =  -6.15212698116278E-03  6.60605896607363E-10
 cg2d: Sum(rhs),rhsMax =  -6.18584374291376E-03  6.57005184614756E-10
 cg2d: Sum(rhs),rhsMax =  -6.22054639985357E-03  6.53339948032125E-10
 cg2d: Sum(rhs),rhsMax =  -6.25622347927056E-03  6.49614184861137E-10
 cg2d: Sum(rhs),rhsMax =  -6.29226819792232E-03  6.45892934141211E-10
 cg2d: Sum(rhs),rhsMax =  -6.32934822570440E-03  6.42109024523452E-10
 cg2d: Sum(rhs),rhsMax =  -6.36748741956871E-03  6.38263006103736E-10
 cg2d: Sum(rhs),rhsMax =  -6.40671059347949E-03  6.34355438738229E-10
(PID.TID 0000.0001)      cg2d_init_res =   2.65582776943033E-01
(PID.TID 0000.0001)      cg2d_iters(min,last) =      -1     550
(PID.TID 0000.0001)      cg2d_last_res =   9.44199810024611E-08
(PID.TID 0000.0001) // =======================================================
(PID.TID 0000.0001) // Begin MONITOR dynamic field statistics
(PID.TID 0000.0001) // =======================================================
(PID.TID 0000.0001) %MON time_tsnumber                =                  2464
(PID.TID 0000.0001) %MON time_secondsf                =   1.3305600000000E+07
(PID.TID 0000.0001) %MON dynstat_eta_max              =   5.3125574472710E-09
(PID.TID 0000.0001) %MON dynstat_eta_min              =  -5.1194224891836E-09
(PID.TID 0000.0001) %MON dynstat_eta_mean             =   3.9166528560839E-13
(PID.TID 0000.0001) %MON dynstat_eta_sd               =   2.3707908333048E-09
(PID.TID 0000.0001) %MON dynstat_eta_del2             =   2.6960180466458E-14
(PID.TID 0000.0001) %MON dynstat_uvel_max             =   2.7290018343285E-09
(PID.TID 0000.0001) %MON dynstat_uvel_min             =  -3.8118845049841E-09
(PID.TID 0000.0001) %MON dynstat_uvel_mean            =   1.5274851693688E-13
(PID.TID 0000.0001) %MON dynstat_uvel_sd              =   1.0692226864439E-09
(PID.TID 0000.0001) %MON dynstat_uvel_del2            =   9.2031595127059E-14
(PID.TID 0000.0001) %MON dynstat_vvel_max             =   5.0323706463591E-09
(PID.TID 0000.0001) %MON dynstat_vvel_min             =  -4.4993873060318E-09
(PID.TID 0000.0001) %MON dynstat_vvel_mean            =   2.1384860050575E-14
(PID.TID 0000.0001) %MON dynstat_vvel_sd              =   1.8912795853850E-09
(PID.TID 0000.0001) %MON dynstat_vvel_del2            =   1.0763324324552E-13
(PID.TID 0000.0001) %MON dynstat_wvel_max             =   8.8629834910092E-15
(PID.TID 0000.0001) %MON dynstat_wvel_min             =  -1.3070588947839E-14
(PID.TID 0000.0001) %MON dynstat_wvel_mean            =   2.2163649371267E-28
(PID.TID 0000.0001) %MON dynstat_wvel_sd              =   5.8518876266036E-15
(PID.TID 0000.0001) %MON dynstat_wvel_del2            =   4.1126605315465E-20
(PID.TID 0000.0001) %MON dynstat_theta_max            =   2.0000000000000E+01
(PID.TID 0000.0001) %MON dynstat_theta_min            =   2.0000000000000E+01
(PID.TID 0000.0001) %MON dynstat_theta_mean           =   2.0000000000000E+01
(PID.TID 0000.0001) %MON dynstat_theta_sd             =   0.0000000000000E+00
(PID.TID 0000.0001) %MON dynstat_theta_del2           =   0.0000000000000E+00
(PID.TID 0000.0001) %MON dynstat_salt_max             =   3.0000000000000E+01
(PID.TID 0000.0001) %MON dynstat_salt_min             =   3.0000000000000E+01
(PID.TID 0000.0001) %MON dynstat_salt_mean            =   3.0000000000000E+01
(PID.TID 0000.0001) %MON dynstat_salt_sd              =   0.0000000000000E+00
(PID.TID 0000.0001) %MON dynstat_salt_del2            =   0.0000000000000E+00
(PID.TID 0000.0001) %MON trAdv_CFL_u_max              =   4.1021244235781E-09
(PID.TID 0000.0001) %MON trAdv_CFL_v_max              =   5.4504029569517E-09
(PID.TID 0000.0001) %MON trAdv_CFL_w_max              =   9.5477171413005E-15
(PID.TID 0000.0001) %MON advcfl_uvel_max              =   4.1168352653828E-09
(PID.TID 0000.0001) %MON advcfl_vvel_max              =   5.4349602980678E-09
(PID.TID 0000.0001) %MON advcfl_wvel_max              =   2.8232472127332E-14
(PID.TID 0000.0001) %MON advcfl_W_hf_max              =   0.0000000000000E+00
(PID.TID 0000.0001) %MON pe_b_mean                    =   5.5138569914386E-21
(PID.TID 0000.0001) %MON ke_max                       =   1.2660206830334E-17
(PID.TID 0000.0001) %MON ke_mean                      =   2.3504939706035E-18
(PID.TID 0000.0001) %MON ke_vol                       =   7.5645000000000E+15
(PID.TID 0000.0001) %MON vort_r_min                   =  -2.0053569011649E-13
(PID.TID 0000.0001) %MON vort_r_max                   =   2.6941257955650E-13
(PID.TID 0000.0001) %MON vort_a_mean                  =   8.2299999999999E-05
(PID.TID 0000.0001) %MON vort_a_sd                    =   7.1297555115734E-06
(PID.TID 0000.0001) %MON vort_p_mean                  =   8.3303658536584E-05
(PID.TID 0000.0001) %MON vort_p_sd                    =   1.7411470229240E-05
(PID.TID 0000.0001) %MON surfExpan_theta_mean         =   4.4792495216617E-27
(PID.TID 0000.0001) %MON surfExpan_salt_mean          =   6.8015877860258E-27
(PID.TID 0000.0001) // =======================================================
(PID.TID 0000.0001) // End MONITOR dynamic field statistics
(PID.TID 0000.0001) // =======================================================
 cg2d: Sum(rhs),rhsMax =  -6.44704356199423E-03  6.30386892970477E-10
 cg2d: Sum(rhs),rhsMax =  -6.48851317419830E-03  6.26357949600323E-10
 cg2d: Sum(rhs),rhsMax =  -6.53114738980277E-03  6.22269199596659E-10
 cg2d: Sum(rhs),rhsMax =  -6.57497529787239E-03  6.18121243977533E-10
 cg2d: Sum(rhs),rhsMax =  -6.62002718370296E-03  6.13914693692936E-10
 cg2d: Sum(rhs),rhsMax =  -6.66633457280488E-03  6.09650169755784E-10
 cg2d: Sum(rhs),rhsMax =  -6.71393033241226E-03  6.05328301965440E-10
 cg2d: Sum(rhs),rhsMax =  -6.76277822525198E-03  6.00955991536319E-10
 cg2d: Sum(rhs),rhsMax =  -6.81217391542340E-03  5.96598410677724E-10
 cg2d: Sum(rhs),rhsMax =  -6.86293582917678E-03  5.92185658287221E-10
 cg2d: Sum(rhs),rhsMax =  -6.91510123414030E-03  5.87718396863388E-10
 cg2d: Sum(rhs),rhsMax =  -6.96870898690694E-03  5.83197297836807E-10
 cg2d: Sum(rhs),rhsMax =  -7.02379960779720E-03  5.78623041390419E-10
 cg2d: Sum(rhs),rhsMax =  -7.08041535431282E-03  5.73996316424944E-10
 cg2d: Sum(rhs),rhsMax =  -7.13860031594264E-03  5.69317820420152E-10
 cg2d: Sum(rhs),rhsMax =  -7.19840051220326E-03  5.64588259299625E-10
(PID.TID 0000.0001)      cg2d_init_res =   3.03476706795136E-01
(PID.TID 0000.0001)      cg2d_iters(min,last) =      -1     553
(PID.TID 0000.0001)      cg2d_last_res =   8.74624110286944E-08
(PID.TID 0000.0001) // =======================================================
(PID.TID 0000.0001) // Begin MONITOR dynamic field statistics
(PID.TID 0000.0001) // =======================================================
(PID.TID 0000.0001) %MON time_tsnumber                =                  2480
(PID.TID 0000.0001) %MON time_secondsf                =   1.3392000000000E+07
(PID.TID 0000.0001) %MON dynstat_eta_max              =   5.1932535724478E-09
(PID.TID 0000.0001) %MON dynstat_eta_min              =  -5.3177794782603E-09
(PID.TID 0000.0001) %MON dynstat_eta_mean             =   3.9166535208670E-13
(PID.TID 0000.0001) %MON dynstat_eta_sd               =   2.3460005149682E-09
(PID.TID 0000.0001) %MON dynstat_eta_del2             =   2.6461002755164E-14
(PID.TID 0000.0001) %MON dynstat_uvel_max             =   2.7523307666629E-09
(PID.TID 0000.0001) %MON dynstat_uvel_min             =  -3.9812126724821E-09
(PID.TID 0000.0001) %MON dynstat_uvel_mean            =   2.0070444166847E-13
(PID.TID 0000.0001) %MON dynstat_uvel_sd              =   1.0970572603295E-09
(PID.TID 0000.0001) %MON dynstat_uvel_del2            =   9.2840366810890E-14
(PID.TID 0000.0001) %MON dynstat_vvel_max             =   4.7411021910511E-09
(PID.TID 0000.0001) %MON dynstat_vvel_min             =  -4.6511058596864E-09
(PID.TID 0000.0001) %MON dynstat_vvel_mean            =   2.1870996929983E-14
(PID.TID 0000.0001) %MON dynstat_vvel_sd              =   1.8497739831433E-09
(PID.TID 0000.0001) %MON dynstat_vvel_del2            =   1.0396121314133E-13
(PID.TID 0000.0001) %MON dynstat_wvel_max             =   9.1660962220352E-15
(PID.TID 0000.0001) %MON dynstat_wvel_min             =  -1.2352944116778E-14
(PID.TID 0000.0001) %MON dynstat_wvel_mean            =  -2.9680616740457E-28
(PID.TID 0000.0001) %MON dynstat_wvel_sd              =   5.8317693839846E-15
(PID.TID 0000.0001) %MON dynstat_wvel_del2            =   4.1626278209991E-20
(PID.TID 0000.0001) %MON dynstat_theta_max            =   2.0000000000000E+01
(PID.TID 0000.0001) %MON dynstat_theta_min            =   2.0000000000000E+01
(PID.TID 0000.0001) %MON dynstat_theta_mean           =   2.0000000000000E+01
(PID.TID 0000.0001) %MON dynstat_theta_sd             =   0.0000000000000E+00
(PID.TID 0000.0001) %MON dynstat_theta_del2           =   0.0000000000000E+00
(PID.TID 0000.0001) %MON dynstat_salt_max             =   3.0000000000000E+01
(PID.TID 0000.0001) %MON dynstat_salt_min             =   3.0000000000000E+01
(PID.TID 0000.0001) %MON dynstat_salt_mean            =   3.0000000000000E+01
(PID.TID 0000.0001) %MON dynstat_salt_sd              =   0.0000000000000E+00
(PID.TID 0000.0001) %MON dynstat_salt_del2            =   0.0000000000000E+00
(PID.TID 0000.0001) %MON trAdv_CFL_u_max              =   4.2911773112266E-09
(PID.TID 0000.0001) %MON trAdv_CFL_v_max              =   5.1428951602211E-09
(PID.TID 0000.0001) %MON trAdv_CFL_w_max              =   9.8834775755563E-15
(PID.TID 0000.0001) %MON advcfl_uvel_max              =   4.2997096862807E-09
(PID.TID 0000.0001) %MON advcfl_vvel_max              =   5.1203903663352E-09
(PID.TID 0000.0001) %MON advcfl_wvel_max              =   2.6682359292240E-14
(PID.TID 0000.0001) %MON advcfl_W_hf_max              =   0.0000000000000E+00
(PID.TID 0000.0001) %MON pe_b_mean                    =   5.3991479168097E-21
(PID.TID 0000.0001) %MON ke_max                       =   1.1319690083551E-17
(PID.TID 0000.0001) %MON ke_mean                      =   2.3031984210761E-18
(PID.TID 0000.0001) %MON ke_vol                       =   7.5645000000000E+15
(PID.TID 0000.0001) %MON vort_r_min                   =  -2.0124030533814E-13
(PID.TID 0000.0001) %MON vort_r_max                   =   2.4495632632555E-13
(PID.TID 0000.0001) %MON vort_a_mean                  =   8.2300000000000E-05
(PID.TID 0000.0001) %MON vort_a_sd                    =   7.1297555115607E-06
(PID.TID 0000.0001) %MON vort_p_mean                  =   8.3303658536585E-05
(PID.TID 0000.0001) %MON vort_p_sd                    =   1.7411470229135E-05
(PID.TID 0000.0001) %MON surfExpan_theta_mean         =  -5.8272818258704E-27
(PID.TID 0000.0001) %MON surfExpan_salt_mean          =  -8.7759082676352E-27
(PID.TID 0000.0001) // =======================================================
(PID.TID 0000.0001) // End MONITOR dynamic field statistics
(PID.TID 0000.0001) // =======================================================
 cg2d: Sum(rhs),rhsMax =  -7.25986396964902E-03  5.59808347188361E-10
 cg2d: Sum(rhs),rhsMax =  -7.32304088081452E-03  5.54978806481963E-10
 cg2d: Sum(rhs),rhsMax =  -7.38758532557326E-03  5.50130027950941E-10
 cg2d: Sum(rhs),rhsMax =  -7.45322345987745E-03  5.45285215436794E-10
 cg2d: Sum(rhs),rhsMax =  -7.52069584734021E-03  5.40393160648279E-10
 cg2d: Sum(rhs),rhsMax =  -7.59006003513732E-03  5.35454610619806E-10
 cg2d: Sum(rhs),rhsMax =  -7.65888620541384E-03  5.30642781064865E-10
 cg2d: Sum(rhs),rhsMax =  -7.62788486613619E-03  5.32799431045484E-10
 cg2d: Sum(rhs),rhsMax =  -7.59813147530505E-03  5.34885816685614E-10
 cg2d: Sum(rhs),rhsMax =  -7.56960625039093E-03  5.36901480094797E-10
 cg2d: Sum(rhs),rhsMax =  -7.54138235555806E-03  5.38910858971969E-10
 cg2d: Sum(rhs),rhsMax =  -7.51382444443752E-03  5.40887388888360E-10
 cg2d: Sum(rhs),rhsMax =  -7.48745302740116E-03  5.42792443744393E-10
 cg2d: Sum(rhs),rhsMax =  -7.46225102868904E-03  5.44625603645399E-10
 cg2d: Sum(rhs),rhsMax =  -7.43745199599818E-03  5.46441579175933E-10
 cg2d: Sum(rhs),rhsMax =  -7.41309361878207E-03  5.48237114659269E-10
(PID.TID 0000.0001)      cg2d_init_res =   3.17093809620908E-01
(PID.TID 0000.0001)      cg2d_iters(min,last) =      -1     553
(PID.TID 0000.0001)      cg2d_last_res =   9.31532453221660E-08
(PID.TID 0000.0001) // =======================================================
(PID.TID 0000.0001) // Begin MONITOR dynamic field statistics
(PID.TID 0000.0001) // =======================================================
(PID.TID 0000.0001) %MON time_tsnumber                =                  2496
(PID.TID 0000.0001) %MON time_secondsf                =   1.3478400000000E+07
(PID.TID 0000.0001) %MON dynstat_eta_max              =   4.9938130561740E-09
(PID.TID 0000.0001) %MON dynstat_eta_min              =  -5.4077459614040E-09
(PID.TID 0000.0001) %MON dynstat_eta_mean             =   3.9166541502978E-13
(PID.TID 0000.0001) %MON dynstat_eta_sd               =   2.3258447111297E-09
(PID.TID 0000.0001) %MON dynstat_eta_del2             =   2.5878848632702E-14
(PID.TID 0000.0001) %MON dynstat_uvel_max             =   2.7330682121802E-09
(PID.TID 0000.0001) %MON dynstat_uvel_min             =  -4.0644637994661E-09
(PID.TID 0000.0001) %MON dynstat_uvel_mean            =   2.3801798678330E-13
(PID.TID 0000.0001) %MON dynstat_uvel_sd              =   1.1279184532100E-09
(PID.TID 0000.0001) %MON dynstat_uvel_del2            =   9.2492787253288E-14
(PID.TID 0000.0001) %MON dynstat_vvel_max             =   4.3583101417434E-09
(PID.TID 0000.0001) %MON dynstat_vvel_min             =  -4.7461945411186E-09
(PID.TID 0000.0001) %MON dynstat_vvel_mean            =   2.1497061031134E-14
(PID.TID 0000.0001) %MON dynstat_vvel_sd              =   1.8063121610187E-09
(PID.TID 0000.0001) %MON dynstat_vvel_del2            =   1.0197658597220E-13
(PID.TID 0000.0001) %MON dynstat_wvel_max             =   9.6124035631195E-15
(PID.TID 0000.0001) %MON dynstat_wvel_min             =  -1.2447447235719E-14
(PID.TID 0000.0001) %MON dynstat_wvel_mean            =   7.4175115811675E-29
(PID.TID 0000.0001) %MON dynstat_wvel_sd              =   5.7977747662563E-15
(PID.TID 0000.0001) %MON dynstat_wvel_del2            =   4.2230460604901E-20
(PID.TID 0000.0001) %MON dynstat_theta_max            =   2.0000000000000E+01
(PID.TID 0000.0001) %MON dynstat_theta_min            =   2.0000000000000E+01
(PID.TID 0000.0001) %MON dynstat_theta_mean           =   2.0000000000000E+01
(PID.TID 0000.0001) %MON dynstat_theta_sd             =   0.0000000000000E+00
(PID.TID 0000.0001) %MON dynstat_theta_del2           =   0.0000000000000E+00
(PID.TID 0000.0001) %MON dynstat_salt_max             =   3.0000000000000E+01
(PID.TID 0000.0001) %MON dynstat_salt_min             =   3.0000000000000E+01
(PID.TID 0000.0001) %MON dynstat_salt_mean            =   3.0000000000000E+01
(PID.TID 0000.0001) %MON dynstat_salt_sd              =   0.0000000000000E+00
(PID.TID 0000.0001) %MON dynstat_salt_del2            =   0.0000000000000E+00
(PID.TID 0000.0001) %MON trAdv_CFL_u_max              =   4.3868736912782E-09
(PID.TID 0000.0001) %MON trAdv_CFL_v_max              =   5.1204979219400E-09
(PID.TID 0000.0001) %MON trAdv_CFL_w_max              =   1.0348680744743E-14
(PID.TID 0000.0001) %MON advcfl_uvel_max              =   4.3896209034234E-09
(PID.TID 0000.0001) %MON advcfl_vvel_max              =   5.1258901044080E-09
(PID.TID 0000.0001) %MON advcfl_wvel_max              =   2.6886486029154E-14
(PID.TID 0000.0001) %MON advcfl_W_hf_max              =   0.0000000000000E+00
(PID.TID 0000.0001) %MON pe_b_mean                    =   5.3067722519917E-21
(PID.TID 0000.0001) %MON ke_max                       =   1.1900716481129E-17
(PID.TID 0000.0001) %MON ke_mean                      =   2.2582644526959E-18
(PID.TID 0000.0001) %MON ke_vol                       =   7.5645000000000E+15
(PID.TID 0000.0001) %MON vort_r_min                   =  -1.9696978399834E-13
(PID.TID 0000.0001) %MON vort_r_max                   =   2.1540335279236E-13
(PID.TID 0000.0001) %MON vort_a_mean                  =   8.2300000000000E-05
(PID.TID 0000.0001) %MON vort_a_sd                    =   7.1297555115538E-06
(PID.TID 0000.0001) %MON vort_p_mean                  =   8.3303658536586E-05
(PID.TID 0000.0001) %MON vort_p_sd                    =   1.7411470229043E-05
(PID.TID 0000.0001) %MON surfExpan_theta_mean         =   1.4970037829065E-27
(PID.TID 0000.0001) %MON surfExpan_salt_mean          =   2.3370472666712E-27
(PID.TID 0000.0001) // =======================================================
(PID.TID 0000.0001) // End MONITOR dynamic field statistics
(PID.TID 0000.0001) // =======================================================
 cg2d: Sum(rhs),rhsMax =  -7.38986915701656E-03  5.49960089590478E-10
 cg2d: Sum(rhs),rhsMax =  -7.36776390726035E-03  5.51610122402451E-10
 cg2d: Sum(rhs),rhsMax =  -7.34635970242542E-03  5.53217289145865E-10
 cg2d: Sum(rhs),rhsMax =  -7.32498870839339E-03  5.54831333298173E-10
 cg2d: Sum(rhs),rhsMax =  -7.30470681633611E-03  5.56371857862068E-10
 cg2d: Sum(rhs),rhsMax =  -7.28550146486953E-03  5.57838519809029E-10
 cg2d: Sum(rhs),rhsMax =  -7.26736086092685E-03  5.59230989614124E-10
 cg2d: Sum(rhs),rhsMax =  -7.24889511674546E-03  5.60655574459027E-10
 cg2d: Sum(rhs),rhsMax =  -7.23137861753232E-03  5.62013652029608E-10
 cg2d: Sum(rhs),rhsMax =  -7.21490266358776E-03  5.63297073937577E-10
 cg2d: Sum(rhs),rhsMax =  -7.19945731915197E-03  5.64505549408635E-10
 cg2d: Sum(rhs),rhsMax =  -7.18427836715044E-03  5.65698245041180E-10
 cg2d: Sum(rhs),rhsMax =  -7.16937440414308E-03  5.66874247316057E-10
 cg2d: Sum(rhs),rhsMax =  -7.15548093830890E-03  5.67974928812325E-10
 cg2d: Sum(rhs),rhsMax =  -7.14258976320113E-03  5.69000037433271E-10
 cg2d: Sum(rhs),rhsMax =  -7.13067642587632E-03  5.69950683987694E-10
(PID.TID 0000.0001)      cg2d_init_res =   3.07957204963726E-01
(PID.TID 0000.0001)      cg2d_iters(min,last) =      -1     551
(PID.TID 0000.0001)      cg2d_last_res =   9.67152160736321E-08
(PID.TID 0000.0001) // =======================================================
(PID.TID 0000.0001) // Begin MONITOR dynamic field statistics
(PID.TID 0000.0001) // =======================================================
(PID.TID 0000.0001) %MON time_tsnumber                =                  2512
(PID.TID 0000.0001) %MON time_secondsf                =   1.3564800000000E+07
(PID.TID 0000.0001) %MON dynstat_eta_max              =   4.7180877608730E-09
(PID.TID 0000.0001) %MON dynstat_eta_min              =  -5.3622310253865E-09
(PID.TID 0000.0001) %MON dynstat_eta_mean             =   3.9166550020079E-13
(PID.TID 0000.0001) %MON dynstat_eta_sd               =   2.3109332515923E-09
(PID.TID 0000.0001) %MON dynstat_eta_del2             =   2.5252426012826E-14
(PID.TID 0000.0001) %MON dynstat_uvel_max             =   2.7042175676483E-09
(PID.TID 0000.0001) %MON dynstat_uvel_min             =  -4.0562080983705E-09
(PID.TID 0000.0001) %MON dynstat_uvel_mean            =   2.6293085452776E-13
(PID.TID 0000.0001) %MON dynstat_uvel_sd              =   1.1543541624728E-09
(PID.TID 0000.0001) %MON dynstat_uvel_del2            =   9.1076807888591E-14
(PID.TID 0000.0001) %MON dynstat_vvel_max             =   3.8895604666337E-09
(PID.TID 0000.0001) %MON dynstat_vvel_min             =  -4.7787082224771E-09
(PID.TID 0000.0001) %MON dynstat_vvel_mean            =   2.0390117109062E-14
(PID.TID 0000.0001) %MON dynstat_vvel_sd              =   1.7654380895965E-09
(PID.TID 0000.0001) %MON dynstat_vvel_del2            =   1.0172835160149E-13
(PID.TID 0000.0001) %MON dynstat_wvel_max             =   1.0102308295179E-14
(PID.TID 0000.0001) %MON dynstat_wvel_min             =  -1.2789322972884E-14
(PID.TID 0000.0001) %MON dynstat_wvel_mean            =  -4.6655307049589E-29
(PID.TID 0000.0001) %MON dynstat_wvel_sd              =   5.7475044877824E-15
(PID.TID 0000.0001) %MON dynstat_wvel_del2            =   4.2807984688572E-20
(PID.TID 0000.0001) %MON dynstat_theta_max            =   2.0000000000000E+01
(PID.TID 0000.0001) %MON dynstat_theta_min            =   2.0000000000000E+01
(PID.TID 0000.0001) %MON dynstat_theta_mean           =   2.0000000000000E+01
(PID.TID 0000.0001) %MON dynstat_theta_sd             =   0.0000000000000E+00
(PID.TID 0000.0001) %MON dynstat_theta_del2           =   0.0000000000000E+00
(PID.TID 0000.0001) %MON dynstat_salt_max             =   3.0000000000000E+01
(PID.TID 0000.0001) %MON dynstat_salt_min             =   3.0000000000000E+01
(PID.TID 0000.0001) %MON dynstat_salt_mean            =   3.0000000000000E+01
(PID.TID 0000.0001) %MON dynstat_salt_sd              =   0.0000000000000E+00
(PID.TID 0000.0001) %MON dynstat_salt_del2            =   0.0000000000000E+00
(PID.TID 0000.0001) %MON trAdv_CFL_u_max              =   4.3840357344833E-09
(PID.TID 0000.0001) %MON trAdv_CFL_v_max              =   5.1598998007214E-09
(PID.TID 0000.0001) %MON trAdv_CFL_w_max              =   1.0877829486966E-14
(PID.TID 0000.0001) %MON advcfl_uvel_max              =   4.3807047462402E-09
(PID.TID 0000.0001) %MON advcfl_vvel_max              =   5.1610048802753E-09
(PID.TID 0000.0001) %MON advcfl_wvel_max              =   2.7624937621429E-14
(PID.TID 0000.0001) %MON advcfl_W_hf_max              =   0.0000000000000E+00
(PID.TID 0000.0001) %MON pe_b_mean                    =   5.2389448064291E-21
(PID.TID 0000.0001) %MON ke_max                       =   1.2210989307034E-17
(PID.TID 0000.0001) %MON ke_mean                      =   2.2156093217284E-18
(PID.TID 0000.0001) %MON ke_vol                       =   7.5645000000000E+15
(PID.TID 0000.0001) %MON vort_r_min                   =  -2.0701839832104E-13
(PID.TID 0000.0001) %MON vort_r_max                   =   1.8215254463708E-13
(PID.TID 0000.0001) %MON vort_a_mean                  =   8.2300000000001E-05
(PID.TID 0000.0001) %MON vort_a_sd                    =   7.1297555115563E-06
(PID.TID 0000.0001) %MON vort_p_mean                  =   8.3303658536586E-05
(PID.TID 0000.0001) %MON vort_p_sd                    =   1.7411470228971E-05
(PID.TID 0000.0001) %MON surfExpan_theta_mean         =  -9.9558088148478E-28
(PID.TID 0000.0001) %MON surfExpan_salt_mean          =  -1.4584598366967E-27
(PID.TID 0000.0001) // =======================================================
(PID.TID 0000.0001) // End MONITOR dynamic field statistics
(PID.TID 0000.0001) // =======================================================
 cg2d: Sum(rhs),rhsMax =  -7.11825400400567E-03  5.70945344811713E-10
 cg2d: Sum(rhs),rhsMax =  -7.10681739331176E-03  5.71864148031943E-10
 cg2d: Sum(rhs),rhsMax =  -7.09635998059463E-03  5.72706879819074E-10
 cg2d: Sum(rhs),rhsMax =  -7.08687577901608E-03  5.73473341398838E-10
 cg2d: Sum(rhs),rhsMax =  -7.07764106612045E-03  5.74221607177848E-10
 cg2d: Sum(rhs),rhsMax =  -7.06855480067801E-03  5.74959749420863E-10
 cg2d: Sum(rhs),rhsMax =  -7.06042936134618E-03  5.75621450114895E-10
 cg2d: Sum(rhs),rhsMax =  -7.05326023540387E-03  5.76206548503684E-10
 cg2d: Sum(rhs),rhsMax =  -7.04704340680589E-03  5.76714896898048E-10
 cg2d: Sum(rhs),rhsMax =  -7.04039249722451E-03  5.77259722179938E-10
 cg2d: Sum(rhs),rhsMax =  -7.03451462097520E-03  5.77742084858910E-10
 cg2d: Sum(rhs),rhsMax =  -7.02958029998552E-03  5.78147639974793E-10
 cg2d: Sum(rhs),rhsMax =  -7.02558690058529E-03  5.78476278877004E-10
 cg2d: Sum(rhs),rhsMax =  -7.02208207164014E-03  5.78765021345170E-10
 cg2d: Sum(rhs),rhsMax =  -7.01838298484767E-03  5.79070078361614E-10
 cg2d: Sum(rhs),rhsMax =  -7.01561882034550E-03  5.79298248359148E-10
(PID.TID 0000.0001)      cg2d_init_res =   3.03865261109442E-01
(PID.TID 0000.0001)      cg2d_iters(min,last) =      -1     553
(PID.TID 0000.0001)      cg2d_last_res =   8.60867244352907E-08
(PID.TID 0000.0001) // =======================================================
(PID.TID 0000.0001) // Begin MONITOR dynamic field statistics
(PID.TID 0000.0001) // =======================================================
(PID.TID 0000.0001) %MON time_tsnumber                =                  2528
(PID.TID 0000.0001) %MON time_secondsf                =   1.3651200000000E+07
(PID.TID 0000.0001) %MON dynstat_eta_max              =   4.3685832178467E-09
(PID.TID 0000.0001) %MON dynstat_eta_min              =  -5.1722822552804E-09
(PID.TID 0000.0001) %MON dynstat_eta_mean             =   3.9166567593268E-13
(PID.TID 0000.0001) %MON dynstat_eta_sd               =   2.3007976537474E-09
(PID.TID 0000.0001) %MON dynstat_eta_del2             =   2.4624697811345E-14
(PID.TID 0000.0001) %MON dynstat_uvel_max             =   2.9470968680573E-09
(PID.TID 0000.0001) %MON dynstat_uvel_min             =  -3.9554351021062E-09
(PID.TID 0000.0001) %MON dynstat_uvel_mean            =   2.7436012280598E-13
(PID.TID 0000.0001) %MON dynstat_uvel_sd              =   1.1705129502775E-09
(PID.TID 0000.0001) %MON dynstat_uvel_del2            =   8.8817367098368E-14
(PID.TID 0000.0001) %MON dynstat_vvel_max             =   3.5714296180992E-09
(PID.TID 0000.0001) %MON dynstat_vvel_min             =  -4.7475753502252E-09
(PID.TID 0000.0001) %MON dynstat_vvel_mean            =   1.8706614949685E-14
(PID.TID 0000.0001) %MON dynstat_vvel_sd              =   1.7313724229994E-09
(PID.TID 0000.0001) %MON dynstat_vvel_del2            =   1.0291386787752E-13
(PID.TID 0000.0001) %MON dynstat_wvel_max             =   1.0594203486147E-14
(PID.TID 0000.0001) %MON dynstat_wvel_min             =  -1.2839824580779E-14
(PID.TID 0000.0001) %MON dynstat_wvel_mean            =  -8.0255371258012E-29
(PID.TID 0000.0001) %MON dynstat_wvel_sd              =   5.6810969071305E-15
(PID.TID 0000.0001) %MON dynstat_wvel_del2            =   4.3198272243952E-20
(PID.TID 0000.0001) %MON dynstat_theta_max            =   2.0000000000000E+01
(PID.TID 0000.0001) %MON dynstat_theta_min            =   2.0000000000000E+01
(PID.TID 0000.0001) %MON dynstat_theta_mean           =   2.0000000000000E+01
(PID.TID 0000.0001) %MON dynstat_theta_sd             =   0.0000000000000E+00
(PID.TID 0000.0001) %MON dynstat_theta_del2           =   0.0000000000000E+00
(PID.TID 0000.0001) %MON dynstat_salt_max             =   3.0000000000000E+01
(PID.TID 0000.0001) %MON dynstat_salt_min             =   3.0000000000000E+01
(PID.TID 0000.0001) %MON dynstat_salt_mean            =   3.0000000000000E+01
(PID.TID 0000.0001) %MON dynstat_salt_sd              =   0.0000000000000E+00
(PID.TID 0000.0001) %MON dynstat_salt_del2            =   0.0000000000000E+00
(PID.TID 0000.0001) %MON trAdv_CFL_u_max              =   4.2813702675933E-09
(PID.TID 0000.0001) %MON trAdv_CFL_v_max              =   5.1308937034310E-09
(PID.TID 0000.0001) %MON trAdv_CFL_w_max              =   1.1408767309673E-14
(PID.TID 0000.0001) %MON advcfl_uvel_max              =   4.2718699102747E-09
(PID.TID 0000.0001) %MON advcfl_vvel_max              =   5.1273813782432E-09
(PID.TID 0000.0001) %MON advcfl_wvel_max              =   2.7734021094483E-14
(PID.TID 0000.0001) %MON advcfl_W_hf_max              =   0.0000000000000E+00
(PID.TID 0000.0001) %MON pe_b_mean                    =   5.1930902669505E-21
(PID.TID 0000.0001) %MON ke_max                       =   1.2240691218066E-17
(PID.TID 0000.0001) %MON ke_mean                      =   2.1749980118512E-18
(PID.TID 0000.0001) %MON ke_vol                       =   7.5645000000000E+15
(PID.TID 0000.0001) %MON vort_r_min                   =  -2.1357658455603E-13
(PID.TID 0000.0001) %MON vort_r_max                   =   1.4672973116860E-13
(PID.TID 0000.0001) %MON vort_a_mean                  =   8.2299999999999E-05
(PID.TID 0000.0001) %MON vort_a_sd                    =   7.1297555115620E-06
(PID.TID 0000.0001) %MON vort_p_mean                  =   8.3303658536585E-05
(PID.TID 0000.0001) %MON vort_p_sd                    =   1.7411470228916E-05
(PID.TID 0000.0001) %MON surfExpan_theta_mean         =  -1.6449090171014E-27
(PID.TID 0000.0001) %MON surfExpan_salt_mean          =  -2.4671395936611E-27
(PID.TID 0000.0001) // =======================================================
(PID.TID 0000.0001) // End MONITOR dynamic field statistics
(PID.TID 0000.0001) // =======================================================
 cg2d: Sum(rhs),rhsMax =  -7.01378823151404E-03  5.79449461053538E-10
 cg2d: Sum(rhs),rhsMax =  -7.01289044200260E-03  5.79523659545785E-10
 cg2d: Sum(rhs),rhsMax =  -7.01185015350110E-03  5.79609657713177E-10
 cg2d: Sum(rhs),rhsMax =  -7.01120599580929E-03  5.79662930510362E-10
 cg2d: Sum(rhs),rhsMax =  -7.01149174368860E-03  5.79639328909755E-10
 cg2d: Sum(rhs),rhsMax =  -7.01270786854200E-03  5.79538833540204E-10
 cg2d: Sum(rhs),rhsMax =  -7.01477670971047E-03  5.79367938311608E-10
 cg2d: Sum(rhs),rhsMax =  -7.01621593237984E-03  5.79249121814985E-10
 cg2d: Sum(rhs),rhsMax =  -7.01858494372901E-03  5.79053636433704E-10
 cg2d: Sum(rhs),rhsMax =  -7.02188544077624E-03  5.78781499644560E-10
 cg2d: Sum(rhs),rhsMax =  -7.02611965675677E-03  5.78432742604091E-10
 cg2d: Sum(rhs),rhsMax =  -7.03056481450445E-03  5.78067068403505E-10
 cg2d: Sum(rhs),rhsMax =  -7.03499688982976E-03  5.77702938224648E-10
 cg2d: Sum(rhs),rhsMax =  -7.04036503825454E-03  5.77262518896931E-10
 cg2d: Sum(rhs),rhsMax =  -7.04667279495045E-03  5.76745877645270E-10
 cg2d: Sum(rhs),rhsMax =  -7.05392445301161E-03  5.76153095541670E-10
(PID.TID 0000.0001)      cg2d_init_res =   3.04034869837410E-01
(PID.TID 0000.0001)      cg2d_iters(min,last) =      -1     553
(PID.TID 0000.0001)      cg2d_last_res =   8.89967717520746E-08
(PID.TID 0000.0001) // =======================================================
(PID.TID 0000.0001) // Begin MONITOR dynamic field statistics
(PID.TID 0000.0001) // =======================================================
(PID.TID 0000.0001) %MON time_tsnumber                =                  2544
(PID.TID 0000.0001) %MON time_secondsf                =   1.3737600000000E+07
(PID.TID 0000.0001) %MON dynstat_eta_max              =   3.9559199174182E-09
(PID.TID 0000.0001) %MON dynstat_eta_min              =  -5.5912095166978E-09
(PID.TID 0000.0001) %MON dynstat_eta_mean             =   3.9166628441071E-13
(PID.TID 0000.0001) %MON dynstat_eta_sd               =   2.2939082348654E-09
(PID.TID 0000.0001) %MON dynstat_eta_del2             =   2.4037387401378E-14
(PID.TID 0000.0001) %MON dynstat_uvel_max             =   3.1273783902623E-09
(PID.TID 0000.0001) %MON dynstat_uvel_min             =  -3.9732103613917E-09
(PID.TID 0000.0001) %MON dynstat_uvel_mean            =   2.7194799236502E-13
(PID.TID 0000.0001) %MON dynstat_uvel_sd              =   1.1726811207094E-09
(PID.TID 0000.0001) %MON dynstat_uvel_del2            =   8.6048243102442E-14
(PID.TID 0000.0001) %MON dynstat_vvel_max             =   3.3949657388916E-09
(PID.TID 0000.0001) %MON dynstat_vvel_min             =  -4.6541669690814E-09
(PID.TID 0000.0001) %MON dynstat_vvel_mean            =   1.6621937012659E-14
(PID.TID 0000.0001) %MON dynstat_vvel_sd              =   1.7071701092862E-09
(PID.TID 0000.0001) %MON dynstat_vvel_del2            =   1.0498052667799E-13
(PID.TID 0000.0001) %MON dynstat_wvel_max             =   1.1061994530381E-14
(PID.TID 0000.0001) %MON dynstat_wvel_min             =  -1.2624809356820E-14
(PID.TID 0000.0001) %MON dynstat_wvel_mean            =   2.6285452131329E-28
(PID.TID 0000.0001) %MON dynstat_wvel_sd              =   5.6014182192604E-15
(PID.TID 0000.0001) %MON dynstat_wvel_del2            =   4.3367731199820E-20
(PID.TID 0000.0001) %MON dynstat_theta_max            =   2.0000000000000E+01
(PID.TID 0000.0001) %MON dynstat_theta_min            =   2.0000000000000E+01
(PID.TID 0000.0001) %MON dynstat_theta_mean           =   2.0000000000000E+01
(PID.TID 0000.0001) %MON dynstat_theta_sd             =   0.0000000000000E+00
(PID.TID 0000.0001) %MON dynstat_theta_del2           =   0.0000000000000E+00
(PID.TID 0000.0001) %MON dynstat_salt_max             =   3.0000000000000E+01
(PID.TID 0000.0001) %MON dynstat_salt_min             =   3.0000000000000E+01
(PID.TID 0000.0001) %MON dynstat_salt_mean            =   3.0000000000000E+01
(PID.TID 0000.0001) %MON dynstat_salt_sd              =   0.0000000000000E+00
(PID.TID 0000.0001) %MON dynstat_salt_del2            =   0.0000000000000E+00
(PID.TID 0000.0001) %MON trAdv_CFL_u_max              =   4.2808756009221E-09
(PID.TID 0000.0001) %MON trAdv_CFL_v_max              =   5.0348098550517E-09
(PID.TID 0000.0001) %MON trAdv_CFL_w_max              =   1.1917667473482E-14
(PID.TID 0000.0001) %MON advcfl_uvel_max              =   4.2910671903031E-09
(PID.TID 0000.0001) %MON advcfl_vvel_max              =   5.0265003266079E-09
(PID.TID 0000.0001) %MON advcfl_wvel_max              =   2.7269588210732E-14
(PID.TID 0000.0001) %MON advcfl_W_hf_max              =   0.0000000000000E+00
(PID.TID 0000.0001) %MON pe_b_mean                    =   5.1620368556612E-21
(PID.TID 0000.0001) %MON ke_max                       =   1.2022805898166E-17
(PID.TID 0000.0001) %MON ke_mean                      =   2.1360867122956E-18
(PID.TID 0000.0001) %MON ke_vol                       =   7.5645000000000E+15
(PID.TID 0000.0001) %MON vort_r_min                   =  -2.1550694122024E-13
(PID.TID 0000.0001) %MON vort_r_max                   =   1.1596401769571E-13
(PID.TID 0000.0001) %MON vort_a_mean                  =   8.2300000000000E-05
(PID.TID 0000.0001) %MON vort_a_sd                    =   7.1297555115630E-06
(PID.TID 0000.0001) %MON vort_p_mean                  =   8.3303658536585E-05
(PID.TID 0000.0001) %MON vort_p_sd                    =   1.7411470228878E-05
(PID.TID 0000.0001) %MON surfExpan_theta_mean         =   5.2026153226926E-27
(PID.TID 0000.0001) %MON surfExpan_salt_mean          =   7.8135108214516E-27
(PID.TID 0000.0001) // =======================================================
(PID.TID 0000.0001) // End MONITOR dynamic field statistics
(PID.TID 0000.0001) // =======================================================
 cg2d: Sum(rhs),rhsMax =  -7.06069942883961E-03  5.75600500222179E-10
 cg2d: Sum(rhs),rhsMax =  -7.07185071374369E-03  5.74995453688507E-10
 cg2d: Sum(rhs),rhsMax =  -7.08022877044891E-03  5.74314699216170E-10
 cg2d: Sum(rhs),rhsMax =  -7.08956338104029E-03  5.73558354846444E-10
 cg2d: Sum(rhs),rhsMax =  -7.09941690541899E-03  5.72762188629290E-10
 cg2d: Sum(rhs),rhsMax =  -7.10891998091181E-03  5.71996453120724E-10
 cg2d: Sum(rhs),rhsMax =  -7.11938442878626E-03  5.71155640345278E-10
 cg2d: Sum(rhs),rhsMax =  -7.13081670240351E-03  5.70239900685406E-10
 cg2d: Sum(rhs),rhsMax =  -7.14322388460870E-03  5.69249398083000E-10
 cg2d: Sum(rhs),rhsMax =  -7.15535668715989E-03  5.68284126093627E-10
 cg2d: Sum(rhs),rhsMax =  -7.16792598470218E-03  5.67287578658046E-10
 cg2d: Sum(rhs),rhsMax =  -7.18147994725494E-03  5.66216878412317E-10
 cg2d: Sum(rhs),rhsMax =  -7.19602697677220E-03  5.65072222483197E-10
 cg2d: Sum(rhs),rhsMax =  -7.21124925711393E-03  5.63879381295253E-10
 cg2d: Sum(rhs),rhsMax =  -7.22595638901291E-03  5.62731682311331E-10
 cg2d: Sum(rhs),rhsMax =  -7.24166850512586E-03  5.61510711660850E-10
(PID.TID 0000.0001)      cg2d_init_res =   3.07932515447656E-01
(PID.TID 0000.0001)      cg2d_iters(min,last) =      -1     553
(PID.TID 0000.0001)      cg2d_last_res =   9.06320275490160E-08
(PID.TID 0000.0001) // =======================================================
(PID.TID 0000.0001) // Begin MONITOR dynamic field statistics
(PID.TID 0000.0001) // =======================================================
(PID.TID 0000.0001) %MON time_tsnumber                =                  2560
(PID.TID 0000.0001) %MON time_secondsf                =   1.3824000000000E+07
(PID.TID 0000.0001) %MON dynstat_eta_max              =   3.4925658913340E-09
(PID.TID 0000.0001) %MON dynstat_eta_min              =  -6.0775728271900E-09
(PID.TID 0000.0001) %MON dynstat_eta_mean             =   3.9187176341428E-13
(PID.TID 0000.0001) %MON dynstat_eta_sd               =   2.2879220011816E-09
(PID.TID 0000.0001) %MON dynstat_eta_del2             =   2.3525052490881E-14
(PID.TID 0000.0001) %MON dynstat_uvel_max             =   3.2386546414148E-09
(PID.TID 0000.0001) %MON dynstat_uvel_min             =  -4.0909081263947E-09
(PID.TID 0000.0001) %MON dynstat_uvel_mean            =   2.5607194888052E-13
(PID.TID 0000.0001) %MON dynstat_uvel_sd              =   1.1594070885814E-09
(PID.TID 0000.0001) %MON dynstat_uvel_del2            =   8.3167806331151E-14
(PID.TID 0000.0001) %MON dynstat_vvel_max             =   3.5005017315771E-09
(PID.TID 0000.0001) %MON dynstat_vvel_min             =  -4.5115213176222E-09
(PID.TID 0000.0001) %MON dynstat_vvel_mean            =   1.4319204029579E-14
(PID.TID 0000.0001) %MON dynstat_vvel_sd              =   1.6940670005235E-09
(PID.TID 0000.0001) %MON dynstat_vvel_del2            =   1.0728251884654E-13
(PID.TID 0000.0001) %MON dynstat_wvel_max             =   1.1456721891734E-14
(PID.TID 0000.0001) %MON dynstat_wvel_min             =  -1.2185467753167E-14
(PID.TID 0000.0001) %MON dynstat_wvel_mean            =   1.8749685277662E-29
(PID.TID 0000.0001) %MON dynstat_wvel_sd              =   5.5137648761846E-15
(PID.TID 0000.0001) %MON dynstat_wvel_del2            =   4.3235351094411E-20
(PID.TID 0000.0001) %MON dynstat_theta_max            =   2.0000000000000E+01
(PID.TID 0000.0001) %MON dynstat_theta_min            =   2.0000000000000E+01
(PID.TID 0000.0001) %MON dynstat_theta_mean           =   2.0000000000000E+01
(PID.TID 0000.0001) %MON dynstat_theta_sd             =   0.0000000000000E+00
(PID.TID 0000.0001) %MON dynstat_theta_del2           =   0.0000000000000E+00
(PID.TID 0000.0001) %MON dynstat_salt_max             =   3.0000000000000E+01
(PID.TID 0000.0001) %MON dynstat_salt_min             =   3.0000000000000E+01
(PID.TID 0000.0001) %MON dynstat_salt_mean            =   3.0000000000000E+01
(PID.TID 0000.0001) %MON dynstat_salt_sd              =   0.0000000000000E+00
(PID.TID 0000.0001) %MON dynstat_salt_del2            =   0.0000000000000E+00
(PID.TID 0000.0001) %MON trAdv_CFL_u_max              =   4.4130614501624E-09
(PID.TID 0000.0001) %MON trAdv_CFL_v_max              =   4.8831967817132E-09
(PID.TID 0000.0001) %MON trAdv_CFL_w_max              =   1.2349491990626E-14
(PID.TID 0000.0001) %MON advcfl_uvel_max              =   4.4181807765063E-09
(PID.TID 0000.0001) %MON advcfl_vvel_max              =   4.8724430230319E-09
(PID.TID 0000.0001) %MON advcfl_wvel_max              =   2.6320610346842E-14
(PID.TID 0000.0001) %MON advcfl_W_hf_max              =   0.0000000000000E+00
(PID.TID 0000.0001) %MON pe_b_mean                    =   5.1351300795503E-21
(PID.TID 0000.0001) %MON ke_max                       =   1.1611732562900E-17
(PID.TID 0000.0001) %MON ke_mean                      =   2.0984787133087E-18
(PID.TID 0000.0001) %MON ke_vol                       =   7.5645000000000E+15
(PID.TID 0000.0001) %MON vort_r_min                   =  -2.1298769552250E-13
(PID.TID 0000.0001) %MON vort_r_max                   =   1.3165360126244E-13
(PID.TID 0000.0001) %MON vort_a_mean                  =   8.2300000000001E-05
(PID.TID 0000.0001) %MON vort_a_sd                    =   7.1297555115500E-06
(PID.TID 0000.0001) %MON vort_p_mean                  =   8.3303658536586E-05
(PID.TID 0000.0001) %MON vort_p_sd                    =   1.7411470228850E-05
(PID.TID 0000.0001) %MON surfExpan_theta_mean         =   3.1939227938797E-28
(PID.TID 0000.0001) %MON surfExpan_salt_mean          =   4.7705271824500E-28
(PID.TID 0000.0001) // =======================================================
(PID.TID 0000.0001) // End MONITOR dynamic field statistics
(PID.TID 0000.0001) // =======================================================
 cg2d: Sum(rhs),rhsMax =  -7.25839535864242E-03  5.60216698614313E-10
 cg2d: Sum(rhs),rhsMax =  -7.27614740927475E-03  5.58849885535127E-10
 cg2d: Sum(rhs),rhsMax =  -7.29361805865250E-03  5.57511234984564E-10
 cg2d: Sum(rhs),rhsMax =  -7.31153641321234E-03  5.56144927316972E-10
 cg2d: Sum(rhs),rhsMax =  -7.33049474302882E-03  5.54706593063411E-10
 cg2d: Sum(rhs),rhsMax =  -7.35050494423096E-03  5.53196505638549E-10
 cg2d: Sum(rhs),rhsMax =  -7.37109202914970E-03  5.51651441208653E-10
 cg2d: Sum(rhs),rhsMax =  -7.39127634662887E-03  5.50144960614861E-10
 cg2d: Sum(rhs),rhsMax =  -7.41252960653457E-03  5.48567567981076E-10
 cg2d: Sum(rhs),rhsMax =  -7.43486517354852E-03  5.46919566508533E-10
 cg2d: Sum(rhs),rhsMax =  -7.45829724689046E-03  5.45201271592240E-10
 cg2d: Sum(rhs),rhsMax =  -7.48112090504903E-03  5.43537941427333E-10
 cg2d: Sum(rhs),rhsMax =  -7.50474453109365E-03  5.41826967153405E-10
 cg2d: Sum(rhs),rhsMax =  -7.52948489737003E-03  5.40046621811694E-10
 cg2d: Sum(rhs),rhsMax =  -7.55535782643043E-03  5.38197249388976E-10
 cg2d: Sum(rhs),rhsMax =  -7.58134435132144E-03  5.36352463514375E-10
(PID.TID 0000.0001)      cg2d_init_res =   3.15748402589029E-01
(PID.TID 0000.0001)      cg2d_iters(min,last) =      -1     553
(PID.TID 0000.0001)      cg2d_last_res =   9.13736451567976E-08
(PID.TID 0000.0001) // =======================================================
(PID.TID 0000.0001) // Begin MONITOR dynamic field statistics
(PID.TID 0000.0001) // =======================================================
(PID.TID 0000.0001) %MON time_tsnumber                =                  2576
(PID.TID 0000.0001) %MON time_secondsf                =   1.3910400000000E+07
(PID.TID 0000.0001) %MON dynstat_eta_max              =   3.6593057591735E-09
(PID.TID 0000.0001) %MON dynstat_eta_min              =  -6.4489249761421E-09
(PID.TID 0000.0001) %MON dynstat_eta_mean             =   3.9187160503747E-13
(PID.TID 0000.0001) %MON dynstat_eta_sd               =   2.2801016239741E-09
(PID.TID 0000.0001) %MON dynstat_eta_del2             =   2.3109768096657E-14
(PID.TID 0000.0001) %MON dynstat_uvel_max             =   3.2774875077410E-09
(PID.TID 0000.0001) %MON dynstat_uvel_min             =  -4.1238849187270E-09
(PID.TID 0000.0001) %MON dynstat_uvel_mean            =   2.2781506580543E-13
(PID.TID 0000.0001) %MON dynstat_uvel_sd              =   1.1314102134053E-09
(PID.TID 0000.0001) %MON dynstat_uvel_del2            =   8.0575122300640E-14
(PID.TID 0000.0001) %MON dynstat_vvel_max             =   3.5352166672591E-09
(PID.TID 0000.0001) %MON dynstat_vvel_min             =  -4.3982650737921E-09
(PID.TID 0000.0001) %MON dynstat_vvel_mean            =   1.1978016193091E-14
(PID.TID 0000.0001) %MON dynstat_vvel_sd              =   1.6912449573260E-09
(PID.TID 0000.0001) %MON dynstat_vvel_del2            =   1.0921731538013E-13
(PID.TID 0000.0001) %MON dynstat_wvel_max             =   1.1705540475249E-14
(PID.TID 0000.0001) %MON dynstat_wvel_min             =  -1.1570018754181E-14
(PID.TID 0000.0001) %MON dynstat_wvel_mean            =  -1.0962141063305E-28
(PID.TID 0000.0001) %MON dynstat_wvel_sd              =   5.4250776609877E-15
(PID.TID 0000.0001) %MON dynstat_wvel_del2            =   4.2780233629318E-20
(PID.TID 0000.0001) %MON dynstat_theta_max            =   2.0000000000000E+01
(PID.TID 0000.0001) %MON dynstat_theta_min            =   2.0000000000000E+01
(PID.TID 0000.0001) %MON dynstat_theta_mean           =   2.0000000000000E+01
(PID.TID 0000.0001) %MON dynstat_theta_sd             =   0.0000000000000E+00
(PID.TID 0000.0001) %MON dynstat_theta_del2           =   0.0000000000000E+00
(PID.TID 0000.0001) %MON dynstat_salt_max             =   3.0000000000000E+01
(PID.TID 0000.0001) %MON dynstat_salt_min             =   3.0000000000000E+01
(PID.TID 0000.0001) %MON dynstat_salt_mean            =   3.0000000000000E+01
(PID.TID 0000.0001) %MON dynstat_salt_sd              =   0.0000000000000E+00
(PID.TID 0000.0001) %MON dynstat_salt_del2            =   0.0000000000000E+00
(PID.TID 0000.0001) %MON trAdv_CFL_u_max              =   4.4546012421613E-09
(PID.TID 0000.0001) %MON trAdv_CFL_v_max              =   4.7415921068971E-09
(PID.TID 0000.0001) %MON trAdv_CFL_w_max              =   1.2631029819077E-14
(PID.TID 0000.0001) %MON advcfl_uvel_max              =   4.4537957122251E-09
(PID.TID 0000.0001) %MON advcfl_vvel_max              =   4.7501262796955E-09
(PID.TID 0000.0001) %MON advcfl_wvel_max              =   2.5283967426537E-14
(PID.TID 0000.0001) %MON advcfl_W_hf_max              =   0.0000000000000E+00
(PID.TID 0000.0001) %MON pe_b_mean                    =   5.1000851613974E-21
(PID.TID 0000.0001) %MON ke_max                       =   1.1129912136614E-17
(PID.TID 0000.0001) %MON ke_mean                      =   2.0617838699936E-18
(PID.TID 0000.0001) %MON ke_vol                       =   7.5645000000000E+15
(PID.TID 0000.0001) %MON vort_r_min                   =  -2.0628498561244E-13
(PID.TID 0000.0001) %MON vort_r_max                   =   1.4464909519882E-13
(PID.TID 0000.0001) %MON vort_a_mean                  =   8.2300000000000E-05
(PID.TID 0000.0001) %MON vort_a_sd                    =   7.1297555115597E-06
(PID.TID 0000.0001) %MON vort_p_mean                  =   8.3303658536585E-05
(PID.TID 0000.0001) %MON vort_p_sd                    =   1.7411470228852E-05
(PID.TID 0000.0001) %MON surfExpan_theta_mean         =  -2.1908888734671E-27
(PID.TID 0000.0001) %MON surfExpan_salt_mean          =  -3.2787503805704E-27
(PID.TID 0000.0001) // =======================================================
(PID.TID 0000.0001) // End MONITOR dynamic field statistics
(PID.TID 0000.0001) // =======================================================
 cg2d: Sum(rhs),rhsMax =  -7.60742618240171E-03  5.34513585080349E-10
 cg2d: Sum(rhs),rhsMax =  -7.63466334556400E-03  5.32606662576480E-10
 cg2d: Sum(rhs),rhsMax =  -7.66307342380391E-03  5.30632067253667E-10
 cg2d: Sum(rhs),rhsMax =  -7.69226515110838E-03  5.28618338638452E-10
 cg2d: Sum(rhs),rhsMax =  -7.72090583409069E-03  5.26657420939770E-10
 cg2d: Sum(rhs),rhsMax =  -7.75074487718490E-03  5.24629870954616E-10
 cg2d: Sum(rhs),rhsMax =  -7.78180172810271E-03  5.22536085774604E-10
 cg2d: Sum(rhs),rhsMax =  -7.81409683586551E-03  5.20376473660878E-10
 cg2d: Sum(rhs),rhsMax =  -7.84556260393496E-03  5.18289420074547E-10
 cg2d: Sum(rhs),rhsMax =  -7.87812228867335E-03  5.16147361530193E-10
 cg2d: Sum(rhs),rhsMax =  -7.91194955411400E-03  5.13940584138186E-10
 cg2d: Sum(rhs),rhsMax =  -7.94706691831596E-03  5.11669520577839E-10
 cg2d: Sum(rhs),rhsMax =  -7.98182756464658E-03  5.09441206114370E-10
 cg2d: Sum(rhs),rhsMax =  -8.01724104130910E-03  5.07190913292338E-10
 cg2d: Sum(rhs),rhsMax =  -8.05397709277815E-03  5.04877491930152E-10
 cg2d: Sum(rhs),rhsMax =  -8.09169723020259E-03  5.02523956166065E-10
(PID.TID 0000.0001)      cg2d_init_res =   3.27854302822735E-01
(PID.TID 0000.0001)      cg2d_iters(min,last) =      -1     553
(PID.TID 0000.0001)      cg2d_last_res =   9.09419756209175E-08
(PID.TID 0000.0001) // =======================================================
(PID.TID 0000.0001) // Begin MONITOR dynamic field statistics
(PID.TID 0000.0001) // =======================================================
(PID.TID 0000.0001) %MON time_tsnumber                =                  2592
(PID.TID 0000.0001) %MON time_secondsf                =   1.3996800000000E+07
(PID.TID 0000.0001) %MON dynstat_eta_max              =   3.8065526199140E-09
(PID.TID 0000.0001) %MON dynstat_eta_min              =  -6.6929193589767E-09
(PID.TID 0000.0001) %MON dynstat_eta_mean             =   3.9187150968696E-13
(PID.TID 0000.0001) %MON dynstat_eta_sd               =   2.2678081278862E-09
(PID.TID 0000.0001) %MON dynstat_eta_del2             =   2.2797701572058E-14
(PID.TID 0000.0001) %MON dynstat_uvel_max             =   3.2438952163444E-09
(PID.TID 0000.0001) %MON dynstat_uvel_min             =  -4.0756244975391E-09
(PID.TID 0000.0001) %MON dynstat_uvel_mean            =   1.8889856928300E-13
(PID.TID 0000.0001) %MON dynstat_uvel_sd              =   1.0913654381194E-09
(PID.TID 0000.0001) %MON dynstat_uvel_del2            =   7.8590397116684E-14
(PID.TID 0000.0001) %MON dynstat_vvel_max             =   3.7397859331271E-09
(PID.TID 0000.0001) %MON dynstat_vvel_min             =  -4.4771437465719E-09
(PID.TID 0000.0001) %MON dynstat_vvel_mean            =   9.7637445084549E-15
(PID.TID 0000.0001) %MON dynstat_vvel_sd              =   1.6961140931881E-09
(PID.TID 0000.0001) %MON dynstat_vvel_del2            =   1.1030774916796E-13
(PID.TID 0000.0001) %MON dynstat_wvel_max             =   1.1758747437418E-14
(PID.TID 0000.0001) %MON dynstat_wvel_min             =  -1.0828866360835E-14
(PID.TID 0000.0001) %MON dynstat_wvel_mean            =   5.7986939684123E-28
(PID.TID 0000.0001) %MON dynstat_wvel_sd              =   5.3427404964729E-15
(PID.TID 0000.0001) %MON dynstat_wvel_del2            =   4.2016281688022E-20
(PID.TID 0000.0001) %MON dynstat_theta_max            =   2.0000000000000E+01
(PID.TID 0000.0001) %MON dynstat_theta_min            =   2.0000000000000E+01
(PID.TID 0000.0001) %MON dynstat_theta_mean           =   2.0000000000000E+01
(PID.TID 0000.0001) %MON dynstat_theta_sd             =   0.0000000000000E+00
(PID.TID 0000.0001) %MON dynstat_theta_del2           =   0.0000000000000E+00
(PID.TID 0000.0001) %MON dynstat_salt_max             =   3.0000000000000E+01
(PID.TID 0000.0001) %MON dynstat_salt_min             =   3.0000000000000E+01
(PID.TID 0000.0001) %MON dynstat_salt_mean            =   3.0000000000000E+01
(PID.TID 0000.0001) %MON dynstat_salt_sd              =   0.0000000000000E+00
(PID.TID 0000.0001) %MON dynstat_salt_del2            =   0.0000000000000E+00
(PID.TID 0000.0001) %MON trAdv_CFL_u_max              =   4.4070330580425E-09
(PID.TID 0000.0001) %MON trAdv_CFL_v_max              =   4.8329890055055E-09
(PID.TID 0000.0001) %MON trAdv_CFL_w_max              =   1.2703433505523E-14
(PID.TID 0000.0001) %MON advcfl_uvel_max              =   4.4016744573422E-09
(PID.TID 0000.0001) %MON advcfl_vvel_max              =   4.8353152462976E-09
(PID.TID 0000.0001) %MON advcfl_wvel_max              =   2.5398894464823E-14
(PID.TID 0000.0001) %MON advcfl_W_hf_max              =   0.0000000000000E+00
(PID.TID 0000.0001) %MON pe_b_mean                    =   5.0452377351590E-21
(PID.TID 0000.0001) %MON ke_max                       =   1.0699156229225E-17
(PID.TID 0000.0001) %MON ke_mean                      =   2.0256727342289E-18
(PID.TID 0000.0001) %MON ke_vol                       =   7.5645000000000E+15
(PID.TID 0000.0001) %MON vort_r_min                   =  -1.9595520765347E-13
(PID.TID 0000.0001) %MON vort_r_max                   =   1.5106231300239E-13
(PID.TID 0000.0001) %MON vort_a_mean                  =   8.2300000000000E-05
(PID.TID 0000.0001) %MON vort_a_sd                    =   7.1297555115555E-06
(PID.TID 0000.0001) %MON vort_p_mean                  =   8.3303658536585E-05
(PID.TID 0000.0001) %MON vort_p_sd                    =   1.7411470228863E-05
(PID.TID 0000.0001) %MON surfExpan_theta_mean         =   1.1600818574226E-26
(PID.TID 0000.0001) %MON surfExpan_salt_mean          =   1.7377117459568E-26
(PID.TID 0000.0001) // =======================================================
(PID.TID 0000.0001) // End MONITOR dynamic field statistics
(PID.TID 0000.0001) // =======================================================
 cg2d: Sum(rhs),rhsMax =  -8.01744516101189E-03  5.07177981382025E-10
 cg2d: Sum(rhs),rhsMax =  -7.94542369664497E-03  5.11775300219463E-10
 cg2d: Sum(rhs),rhsMax =  -7.87556001682067E-03  5.16315225273131E-10
 cg2d: Sum(rhs),rhsMax =  -7.80778473301038E-03  5.20797080611477E-10
 cg2d: Sum(rhs),rhsMax =  -7.74203168942604E-03  5.25220201951868E-10
 cg2d: Sum(rhs),rhsMax =  -7.67823778179877E-03  5.29583936719930E-10
 cg2d: Sum(rhs),rhsMax =  -7.61634283733920E-03  5.33887644170778E-10
 cg2d: Sum(rhs),rhsMax =  -7.55628941252996E-03  5.38130695573695E-10
 cg2d: Sum(rhs),rhsMax =  -7.49802265400158E-03  5.42312474324818E-10
 cg2d: Sum(rhs),rhsMax =  -7.44149018290846E-03  5.46432375568409E-10
 cg2d: Sum(rhs),rhsMax =  -7.38664194890660E-03  5.50489807307328E-10
 cg2d: Sum(rhs),rhsMax =  -7.33343009345316E-03  5.54484189479017E-10
 cg2d: Sum(rhs),rhsMax =  -7.28180889448674E-03  5.58414954724458E-10
 cg2d: Sum(rhs),rhsMax =  -7.23173458930613E-03  5.62281548096194E-10
 cg2d: Sum(rhs),rhsMax =  -7.18316534543398E-03  5.66083427299374E-10
 cg2d: Sum(rhs),rhsMax =  -7.13606112533881E-03  5.69820062871727E-10
(PID.TID 0000.0001)      cg2d_init_res =   2.79859587013371E-01
(PID.TID 0000.0001)      cg2d_iters(min,last) =      -1     550
(PID.TID 0000.0001)      cg2d_last_res =   9.33542268041404E-08
(PID.TID 0000.0001) // =======================================================
(PID.TID 0000.0001) // Begin MONITOR dynamic field statistics
(PID.TID 0000.0001) // =======================================================
(PID.TID 0000.0001) %MON time_tsnumber                =                  2608
(PID.TID 0000.0001) %MON time_secondsf                =   1.4083200000000E+07
(PID.TID 0000.0001) %MON dynstat_eta_max              =   3.9087799188830E-09
(PID.TID 0000.0001) %MON dynstat_eta_min              =  -6.8079244460578E-09
(PID.TID 0000.0001) %MON dynstat_eta_mean             =   3.9187142147699E-13
(PID.TID 0000.0001) %MON dynstat_eta_sd               =   2.2489686286137E-09
(PID.TID 0000.0001) %MON dynstat_eta_del2             =   2.2578606414759E-14
(PID.TID 0000.0001) %MON dynstat_uvel_max             =   3.1442334378039E-09
(PID.TID 0000.0001) %MON dynstat_uvel_min             =  -3.9613829553919E-09
(PID.TID 0000.0001) %MON dynstat_uvel_mean            =   1.4158072133044E-13
(PID.TID 0000.0001) %MON dynstat_uvel_sd              =   1.0435717732602E-09
(PID.TID 0000.0001) %MON dynstat_uvel_del2            =   7.7378740799052E-14
(PID.TID 0000.0001) %MON dynstat_vvel_max             =   4.1363315715924E-09
(PID.TID 0000.0001) %MON dynstat_vvel_min             =  -4.4697738594795E-09
(PID.TID 0000.0001) %MON dynstat_vvel_mean            =   7.8179728218080E-15
(PID.TID 0000.0001) %MON dynstat_vvel_sd              =   1.7050037411146E-09
(PID.TID 0000.0001) %MON dynstat_vvel_del2            =   1.1023509227445E-13
(PID.TID 0000.0001) %MON dynstat_wvel_max             =   1.1604375475538E-14
(PID.TID 0000.0001) %MON dynstat_wvel_min             =  -9.9892979821270E-15
(PID.TID 0000.0001) %MON dynstat_wvel_mean            =   1.6196180261377E-28
(PID.TID 0000.0001) %MON dynstat_wvel_sd              =   5.2731448373814E-15
(PID.TID 0000.0001) %MON dynstat_wvel_del2            =   4.1011947090819E-20
(PID.TID 0000.0001) %MON dynstat_theta_max            =   2.0000000000000E+01
(PID.TID 0000.0001) %MON dynstat_theta_min            =   2.0000000000000E+01
(PID.TID 0000.0001) %MON dynstat_theta_mean           =   2.0000000000000E+01
(PID.TID 0000.0001) %MON dynstat_theta_sd             =   0.0000000000000E+00
(PID.TID 0000.0001) %MON dynstat_theta_del2           =   0.0000000000000E+00
(PID.TID 0000.0001) %MON dynstat_salt_max             =   3.0000000000000E+01
(PID.TID 0000.0001) %MON dynstat_salt_min             =   3.0000000000000E+01
(PID.TID 0000.0001) %MON dynstat_salt_mean            =   3.0000000000000E+01
(PID.TID 0000.0001) %MON dynstat_salt_sd              =   0.0000000000000E+00
(PID.TID 0000.0001) %MON dynstat_salt_del2            =   0.0000000000000E+00
(PID.TID 0000.0001) %MON trAdv_CFL_u_max              =   4.2884116757022E-09
(PID.TID 0000.0001) %MON trAdv_CFL_v_max              =   4.8303797105450E-09
(PID.TID 0000.0001) %MON trAdv_CFL_w_max              =   1.2549268676221E-14
(PID.TID 0000.0001) %MON advcfl_uvel_max              =   4.2782935918232E-09
(PID.TID 0000.0001) %MON advcfl_vvel_max              =   4.8273557682378E-09
(PID.TID 0000.0001) %MON advcfl_wvel_max              =   2.5065451027162E-14
(PID.TID 0000.0001) %MON advcfl_W_hf_max              =   0.0000000000000E+00
(PID.TID 0000.0001) %MON pe_b_mean                    =   4.9617607051770E-21
(PID.TID 0000.0001) %MON ke_max                       =   1.0325118327402E-17
(PID.TID 0000.0001) %MON ke_mean                      =   1.9899177981713E-18
(PID.TID 0000.0001) %MON ke_vol                       =   7.5645000000000E+15
(PID.TID 0000.0001) %MON vort_r_min                   =  -2.2041672022760E-13
(PID.TID 0000.0001) %MON vort_r_max                   =   1.5111147823800E-13
(PID.TID 0000.0001) %MON vort_a_mean                  =   8.2300000000000E-05
(PID.TID 0000.0001) %MON vort_a_sd                    =   7.1297555115567E-06
(PID.TID 0000.0001) %MON vort_p_mean                  =   8.3303658536585E-05
(PID.TID 0000.0001) %MON vort_p_sd                    =   1.7411470228893E-05
(PID.TID 0000.0001) %MON surfExpan_theta_mean         =   3.1440693985757E-27
(PID.TID 0000.0001) %MON surfExpan_salt_mean          =   4.7164439412102E-27
(PID.TID 0000.0001) // =======================================================
(PID.TID 0000.0001) // End MONITOR dynamic field statistics
(PID.TID 0000.0001) // =======================================================
 cg2d: Sum(rhs),rhsMax =  -7.08994381818613E-03  5.73526510517661E-10
 cg2d: Sum(rhs),rhsMax =  -7.04518202609057E-03  5.77170421641457E-10
 cg2d: Sum(rhs),rhsMax =  -7.00178742416513E-03  5.80747511426262E-10
 cg2d: Sum(rhs),rhsMax =  -6.95972570028674E-03  5.84257301383873E-10
 cg2d: Sum(rhs),rhsMax =  -6.91896400290220E-03  5.87699326493631E-10
 cg2d: Sum(rhs),rhsMax =  -6.87947088064021E-03  5.91073134498977E-10
 cg2d: Sum(rhs),rhsMax =  -6.84121617196386E-03  5.94378286672732E-10
 cg2d: Sum(rhs),rhsMax =  -6.80417099919823E-03  5.97614357463132E-10
 cg2d: Sum(rhs),rhsMax =  -6.76830767431642E-03  6.00780934635860E-10
 cg2d: Sum(rhs),rhsMax =  -6.73359966949295E-03  6.03877619901745E-10
 cg2d: Sum(rhs),rhsMax =  -6.70002156122466E-03  6.06904027921817E-10
 cg2d: Sum(rhs),rhsMax =  -6.66754895708515E-03  6.09859787416782E-10
 cg2d: Sum(rhs),rhsMax =  -6.63615853721276E-03  6.12744539836459E-10
 cg2d: Sum(rhs),rhsMax =  -6.60582789655162E-03  6.15557941163405E-10
 cg2d: Sum(rhs),rhsMax =  -6.57653560769838E-03  6.18299660963910E-10
 cg2d: Sum(rhs),rhsMax =  -6.54826110711839E-03  6.20969382344624E-10
(PID.TID 0000.0001)      cg2d_init_res =   2.47868301104528E-01
(PID.TID 0000.0001)      cg2d_iters(min,last) =      -1     541
(PID.TID 0000.0001)      cg2d_last_res =   9.82558517421665E-08
(PID.TID 0000.0001) // =======================================================
(PID.TID 0000.0001) // Begin MONITOR dynamic field statistics
(PID.TID 0000.0001) // =======================================================
(PID.TID 0000.0001) %MON time_tsnumber                =                  2624
(PID.TID 0000.0001) %MON time_secondsf                =   1.4169600000000E+07
(PID.TID 0000.0001) %MON dynstat_eta_max              =   3.9714209973596E-09
(PID.TID 0000.0001) %MON dynstat_eta_min              =  -6.7943725770640E-09
(PID.TID 0000.0001) %MON dynstat_eta_mean             =   3.9187130723454E-13
(PID.TID 0000.0001) %MON dynstat_eta_sd               =   2.2224438767745E-09
(PID.TID 0000.0001) %MON dynstat_eta_del2             =   2.2428455893792E-14
(PID.TID 0000.0001) %MON dynstat_uvel_max             =   2.9802728702031E-09
(PID.TID 0000.0001) %MON dynstat_uvel_min             =  -3.7790994851440E-09
(PID.TID 0000.0001) %MON dynstat_uvel_mean            =   8.8527881223083E-14
(PID.TID 0000.0001) %MON dynstat_uvel_sd              =   9.9345323785418E-10
(PID.TID 0000.0001) %MON dynstat_uvel_del2            =   7.6908532699709E-14
(PID.TID 0000.0001) %MON dynstat_vvel_max             =   4.4963460997529E-09
(PID.TID 0000.0001) %MON dynstat_vvel_min             =  -4.3857783698819E-09
(PID.TID 0000.0001) %MON dynstat_vvel_mean            =   6.2506158349399E-15
(PID.TID 0000.0001) %MON dynstat_vvel_sd              =   1.7140124217052E-09
(PID.TID 0000.0001) %MON dynstat_vvel_del2            =   1.0884136920156E-13
(PID.TID 0000.0001) %MON dynstat_wvel_max             =   1.1269208272935E-14
(PID.TID 0000.0001) %MON dynstat_wvel_min             =  -9.0659612506094E-15
(PID.TID 0000.0001) %MON dynstat_wvel_mean            =   9.8319557905503E-29
(PID.TID 0000.0001) %MON dynstat_wvel_sd              =   5.2203202641161E-15
(PID.TID 0000.0001) %MON dynstat_wvel_del2            =   3.9824498781932E-20
(PID.TID 0000.0001) %MON dynstat_theta_max            =   2.0000000000000E+01
(PID.TID 0000.0001) %MON dynstat_theta_min            =   2.0000000000000E+01
(PID.TID 0000.0001) %MON dynstat_theta_mean           =   2.0000000000000E+01
(PID.TID 0000.0001) %MON dynstat_theta_sd             =   0.0000000000000E+00
(PID.TID 0000.0001) %MON dynstat_theta_del2           =   0.0000000000000E+00
(PID.TID 0000.0001) %MON dynstat_salt_max             =   3.0000000000000E+01
(PID.TID 0000.0001) %MON dynstat_salt_min             =   3.0000000000000E+01
(PID.TID 0000.0001) %MON dynstat_salt_mean            =   3.0000000000000E+01
(PID.TID 0000.0001) %MON dynstat_salt_sd              =   0.0000000000000E+00
(PID.TID 0000.0001) %MON dynstat_salt_del2            =   0.0000000000000E+00
(PID.TID 0000.0001) %MON trAdv_CFL_u_max              =   4.0957348681400E-09
(PID.TID 0000.0001) %MON trAdv_CFL_v_max              =   4.8337976201717E-09
(PID.TID 0000.0001) %MON trAdv_CFL_w_max              =   1.2197356133614E-14
(PID.TID 0000.0001) %MON advcfl_uvel_max              =   4.0814274439556E-09
(PID.TID 0000.0001) %MON advcfl_vvel_max              =   4.8560537877331E-09
(PID.TID 0000.0001) %MON advcfl_wvel_max              =   2.4341489869539E-14
(PID.TID 0000.0001) %MON advcfl_W_hf_max              =   0.0000000000000E+00
(PID.TID 0000.0001) %MON pe_b_mean                    =   4.8454110571353E-21
(PID.TID 0000.0001) %MON ke_max                       =   1.0283659410236E-17
(PID.TID 0000.0001) %MON ke_mean                      =   1.9544167514889E-18
(PID.TID 0000.0001) %MON ke_vol                       =   7.5645000000000E+15
(PID.TID 0000.0001) %MON vort_r_min                   =  -2.4591541066992E-13
(PID.TID 0000.0001) %MON vort_r_max                   =   1.4540729468733E-13
(PID.TID 0000.0001) %MON vort_a_mean                  =   8.2300000000001E-05
(PID.TID 0000.0001) %MON vort_a_sd                    =   7.1297555115430E-06
(PID.TID 0000.0001) %MON vort_p_mean                  =   8.3303658536587E-05
(PID.TID 0000.0001) %MON vort_p_sd                    =   1.7411470228931E-05
(PID.TID 0000.0001) %MON surfExpan_theta_mean         =   1.9693020535422E-27
(PID.TID 0000.0001) %MON surfExpan_salt_mean          =   3.0032219674562E-27
(PID.TID 0000.0001) // =======================================================
(PID.TID 0000.0001) // End MONITOR dynamic field statistics
(PID.TID 0000.0001) // =======================================================
 cg2d: Sum(rhs),rhsMax =  -6.52098466080330E-03  6.23566802182817E-10
 cg2d: Sum(rhs),rhsMax =  -6.49468743795582E-03  6.26091631553762E-10
 cg2d: Sum(rhs),rhsMax =  -6.46935135734663E-03  6.28543594807752E-10
 cg2d: Sum(rhs),rhsMax =  -6.44495911102046E-03  6.30922430675433E-10
 cg2d: Sum(rhs),rhsMax =  -6.42149410569253E-03  6.33227891527857E-10
 cg2d: Sum(rhs),rhsMax =  -6.39894045375623E-03  6.35459744138543E-10
 cg2d: Sum(rhs),rhsMax =  -6.37728300628285E-03  6.37617768541154E-10
 cg2d: Sum(rhs),rhsMax =  -6.35645529442509E-03  6.39706986115198E-10
 cg2d: Sum(rhs),rhsMax =  -6.33616212931985E-03  6.41755794244696E-10
 cg2d: Sum(rhs),rhsMax =  -6.31672876764104E-03  6.43730135313362E-10
 cg2d: Sum(rhs),rhsMax =  -6.29814220970303E-03  6.45629845135940E-10
 cg2d: Sum(rhs),rhsMax =  -6.28039000687518E-03  6.47454773545896E-10
 cg2d: Sum(rhs),rhsMax =  -6.26346033018767E-03  6.49204783762322E-10
 cg2d: Sum(rhs),rhsMax =  -6.24734186388358E-03  6.50879753943899E-10
 cg2d: Sum(rhs),rhsMax =  -6.23202383032626E-03  6.52479575882761E-10
 cg2d: Sum(rhs),rhsMax =  -6.21749595571949E-03  6.54004155453844E-10
(PID.TID 0000.0001)      cg2d_init_res =   2.27117289615313E-01
(PID.TID 0000.0001)      cg2d_iters(min,last) =      -1     535
(PID.TID 0000.0001)      cg2d_last_res =   9.67073678403570E-08
(PID.TID 0000.0001) // =======================================================
(PID.TID 0000.0001) // Begin MONITOR dynamic field statistics
(PID.TID 0000.0001) // =======================================================
(PID.TID 0000.0001) %MON time_tsnumber                =                  2640
(PID.TID 0000.0001) %MON time_secondsf                =   1.4256000000000E+07
(PID.TID 0000.0001) %MON dynstat_eta_max              =   4.0028509321115E-09
(PID.TID 0000.0001) %MON dynstat_eta_min              =  -6.6633492812329E-09
(PID.TID 0000.0001) %MON dynstat_eta_mean             =   3.9187116919268E-13
(PID.TID 0000.0001) %MON dynstat_eta_sd               =   2.1882495296130E-09
(PID.TID 0000.0001) %MON dynstat_eta_del2             =   2.2314449281547E-14
(PID.TID 0000.0001) %MON dynstat_uvel_max             =   2.7594982052352E-09
(PID.TID 0000.0001) %MON dynstat_uvel_min             =  -3.5405190959381E-09
(PID.TID 0000.0001) %MON dynstat_uvel_mean            =   3.2665071454027E-14
(PID.TID 0000.0001) %MON dynstat_uvel_sd              =   9.4680958851517E-10
(PID.TID 0000.0001) %MON dynstat_uvel_del2            =   7.6967667673115E-14
(PID.TID 0000.0001) %MON dynstat_vvel_max             =   4.8050473747787E-09
(PID.TID 0000.0001) %MON dynstat_vvel_min             =  -4.2453832007606E-09
(PID.TID 0000.0001) %MON dynstat_vvel_mean            =   5.1341085424107E-15
(PID.TID 0000.0001) %MON dynstat_vvel_sd              =   1.7197703437639E-09
(PID.TID 0000.0001) %MON dynstat_vvel_del2            =   1.0611569066917E-13
(PID.TID 0000.0001) %MON dynstat_wvel_max             =   1.1513478683778E-14
(PID.TID 0000.0001) %MON dynstat_wvel_min             =  -8.0680664943378E-15
(PID.TID 0000.0001) %MON dynstat_wvel_mean            =  -4.8110435503297E-28
(PID.TID 0000.0001) %MON dynstat_wvel_sd              =   5.1849965262815E-15
(PID.TID 0000.0001) %MON dynstat_wvel_del2            =   3.8536905428754E-20
(PID.TID 0000.0001) %MON dynstat_theta_max            =   2.0000000000000E+01
(PID.TID 0000.0001) %MON dynstat_theta_min            =   2.0000000000000E+01
(PID.TID 0000.0001) %MON dynstat_theta_mean           =   2.0000000000000E+01
(PID.TID 0000.0001) %MON dynstat_theta_sd             =   0.0000000000000E+00
(PID.TID 0000.0001) %MON dynstat_theta_del2           =   0.0000000000000E+00
(PID.TID 0000.0001) %MON dynstat_salt_max             =   3.0000000000000E+01
(PID.TID 0000.0001) %MON dynstat_salt_min             =   3.0000000000000E+01
(PID.TID 0000.0001) %MON dynstat_salt_mean            =   3.0000000000000E+01
(PID.TID 0000.0001) %MON dynstat_salt_sd              =   0.0000000000000E+00
(PID.TID 0000.0001) %MON dynstat_salt_del2            =   0.0000000000000E+00
(PID.TID 0000.0001) %MON trAdv_CFL_u_max              =   3.8413735879173E-09
(PID.TID 0000.0001) %MON trAdv_CFL_v_max              =   5.1707199135117E-09
(PID.TID 0000.0001) %MON trAdv_CFL_w_max              =   1.2355594212354E-14
(PID.TID 0000.0001) %MON advcfl_uvel_max              =   3.8237606236131E-09
(PID.TID 0000.0001) %MON advcfl_vvel_max              =   5.1894511647610E-09
(PID.TID 0000.0001) %MON advcfl_wvel_max              =   2.4869113956960E-14
(PID.TID 0000.0001) %MON advcfl_W_hf_max              =   0.0000000000000E+00
(PID.TID 0000.0001) %MON pe_b_mean                    =   4.6974558704236E-21
(PID.TID 0000.0001) %MON ke_max                       =   1.1870101092217E-17
(PID.TID 0000.0001) %MON ke_mean                      =   1.9191957645435E-18
(PID.TID 0000.0001) %MON ke_vol                       =   7.5645000000000E+15
(PID.TID 0000.0001) %MON vort_r_min                   =  -2.6443334577870E-13
(PID.TID 0000.0001) %MON vort_r_max                   =   1.4727209647799E-13
(PID.TID 0000.0001) %MON vort_a_mean                  =   8.2300000000001E-05
(PID.TID 0000.0001) %MON vort_a_sd                    =   7.1297555115571E-06
(PID.TID 0000.0001) %MON vort_p_mean                  =   8.3303658536586E-05
(PID.TID 0000.0001) %MON vort_p_sd                    =   1.7411470228990E-05
(PID.TID 0000.0001) %MON surfExpan_theta_mean         =  -9.6917524941427E-27
(PID.TID 0000.0001) %MON surfExpan_salt_mean          =  -1.4613889000311E-26
(PID.TID 0000.0001) // =======================================================
(PID.TID 0000.0001) // End MONITOR dynamic field statistics
(PID.TID 0000.0001) // =======================================================
 cg2d: Sum(rhs),rhsMax =  -6.20374849166044E-03  6.55453412658407E-10
 cg2d: Sum(rhs),rhsMax =  -6.19077216231169E-03  6.56827281431195E-10
 cg2d: Sum(rhs),rhsMax =  -6.17855817062778E-03  6.58125709591023E-10
 cg2d: Sum(rhs),rhsMax =  -6.16709815811484E-03  6.59348659328532E-10
 cg2d: Sum(rhs),rhsMax =  -6.15638425735963E-03  6.60496106529792E-10
 cg2d: Sum(rhs),rhsMax =  -6.14640900467965E-03  6.61568041052948E-10
 cg2d: Sum(rhs),rhsMax =  -6.13716536640673E-03  6.62564466997191E-10
 cg2d: Sum(rhs),rhsMax =  -6.12864672545709E-03  6.63485401924437E-10
 cg2d: Sum(rhs),rhsMax =  -6.12084686910952E-03  6.64330877773429E-10
 cg2d: Sum(rhs),rhsMax =  -6.11375998215457E-03  6.65100939858643E-10
 cg2d: Sum(rhs),rhsMax =  -6.10738063723869E-03  6.65795647789863E-10
 cg2d: Sum(rhs),rhsMax =  -6.10170378036966E-03  6.66415074519945E-10
 cg2d: Sum(rhs),rhsMax =  -6.09672473762114E-03  6.66959307178179E-10
 cg2d: Sum(rhs),rhsMax =  -6.09243920602446E-03  6.67428446171371E-10
 cg2d: Sum(rhs),rhsMax =  -6.08871494160811E-03  6.67836676974911E-10
 cg2d: Sum(rhs),rhsMax =  -6.08544928629376E-03  6.68195046308635E-10
(PID.TID 0000.0001)      cg2d_init_res =   2.15065015159707E-01
(PID.TID 0000.0001)      cg2d_iters(min,last) =      -1     534
(PID.TID 0000.0001)      cg2d_last_res =   9.63483256319150E-08
(PID.TID 0000.0001) // =======================================================
(PID.TID 0000.0001) // Begin MONITOR dynamic field statistics
(PID.TID 0000.0001) // =======================================================
(PID.TID 0000.0001) %MON time_tsnumber                =                  2656
(PID.TID 0000.0001) %MON time_secondsf                =   1.4342400000000E+07
(PID.TID 0000.0001) %MON dynstat_eta_max              =   4.1014712533522E-09
(PID.TID 0000.0001) %MON dynstat_eta_min              =  -6.4258405482446E-09
(PID.TID 0000.0001) %MON dynstat_eta_mean             =   3.9187106005144E-13
(PID.TID 0000.0001) %MON dynstat_eta_sd               =   2.1476072409238E-09
(PID.TID 0000.0001) %MON dynstat_eta_del2             =   2.2200997367993E-14
(PID.TID 0000.0001) %MON dynstat_uvel_max             =   2.5590462257075E-09
(PID.TID 0000.0001) %MON dynstat_uvel_min             =  -3.2574535028371E-09
(PID.TID 0000.0001) %MON dynstat_uvel_mean            =  -2.2985522885895E-14
(PID.TID 0000.0001) %MON dynstat_uvel_sd              =   9.0877850463882E-10
(PID.TID 0000.0001) %MON dynstat_uvel_del2            =   7.7231377945921E-14
(PID.TID 0000.0001) %MON dynstat_vvel_max             =   5.0506506593827E-09
(PID.TID 0000.0001) %MON dynstat_vvel_min             =  -4.5802697311294E-09
(PID.TID 0000.0001) %MON dynstat_vvel_mean            =   4.5000490733967E-15
(PID.TID 0000.0001) %MON dynstat_vvel_sd              =   1.7199687341826E-09
(PID.TID 0000.0001) %MON dynstat_vvel_del2            =   1.0217285280950E-13
(PID.TID 0000.0001) %MON dynstat_wvel_max             =   1.2571877435752E-14
(PID.TID 0000.0001) %MON dynstat_wvel_min             =  -7.0095402582293E-15
(PID.TID 0000.0001) %MON dynstat_wvel_mean            =  -1.4659621624276E-28
(PID.TID 0000.0001) %MON dynstat_wvel_sd              =   5.1643940740019E-15
(PID.TID 0000.0001) %MON dynstat_wvel_del2            =   3.7234219371006E-20
(PID.TID 0000.0001) %MON dynstat_theta_max            =   2.0000000000000E+01
(PID.TID 0000.0001) %MON dynstat_theta_min            =   2.0000000000000E+01
(PID.TID 0000.0001) %MON dynstat_theta_mean           =   2.0000000000000E+01
(PID.TID 0000.0001) %MON dynstat_theta_sd             =   0.0000000000000E+00
(PID.TID 0000.0001) %MON dynstat_theta_del2           =   0.0000000000000E+00
(PID.TID 0000.0001) %MON dynstat_salt_max             =   3.0000000000000E+01
(PID.TID 0000.0001) %MON dynstat_salt_min             =   3.0000000000000E+01
(PID.TID 0000.0001) %MON dynstat_salt_mean            =   3.0000000000000E+01
(PID.TID 0000.0001) %MON dynstat_salt_sd              =   0.0000000000000E+00
(PID.TID 0000.0001) %MON dynstat_salt_del2            =   0.0000000000000E+00
(PID.TID 0000.0001) %MON trAdv_CFL_u_max              =   3.5379772407452E-09
(PID.TID 0000.0001) %MON trAdv_CFL_v_max              =   5.4403472367496E-09
(PID.TID 0000.0001) %MON trAdv_CFL_w_max              =   1.3513560652290E-14
(PID.TID 0000.0001) %MON advcfl_uvel_max              =   3.5180497830640E-09
(PID.TID 0000.0001) %MON advcfl_vvel_max              =   5.4547027121334E-09
(PID.TID 0000.0001) %MON advcfl_wvel_max              =   2.7155255261224E-14
(PID.TID 0000.0001) %MON advcfl_W_hf_max              =   0.0000000000000E+00
(PID.TID 0000.0001) %MON pe_b_mean                    =   4.5245848915494E-21
(PID.TID 0000.0001) %MON ke_max                       =   1.3272390609956E-17
(PID.TID 0000.0001) %MON ke_mean                      =   1.8843940047030E-18
(PID.TID 0000.0001) %MON ke_vol                       =   7.5645000000000E+15
(PID.TID 0000.0001) %MON vort_r_min                   =  -2.7531606385575E-13
(PID.TID 0000.0001) %MON vort_r_max                   =   1.5246542771451E-13
(PID.TID 0000.0001) %MON vort_a_mean                  =   8.2300000000000E-05
(PID.TID 0000.0001) %MON vort_a_sd                    =   7.1297555115649E-06
(PID.TID 0000.0001) %MON vort_p_mean                  =   8.3303658536585E-05
(PID.TID 0000.0001) %MON vort_p_sd                    =   1.7411470229056E-05
(PID.TID 0000.0001) %MON surfExpan_theta_mean         =  -2.8930623345420E-27
(PID.TID 0000.0001) %MON surfExpan_salt_mean          =  -4.3529017000788E-27
(PID.TID 0000.0001) // =======================================================
(PID.TID 0000.0001) // End MONITOR dynamic field statistics
(PID.TID 0000.0001) // =======================================================
 cg2d: Sum(rhs),rhsMax =  -6.08286751209152E-03  6.68478637691511E-10
 cg2d: Sum(rhs),rhsMax =  -6.08096646010688E-03  6.68687604960181E-10
 cg2d: Sum(rhs),rhsMax =  -6.07974334439504E-03  6.68822115251677E-10
 cg2d: Sum(rhs),rhsMax =  -6.07919572327060E-03  6.68882349161124E-10
 cg2d: Sum(rhs),rhsMax =  -6.07932146809829E-03  6.68868500808833E-10
 cg2d: Sum(rhs),rhsMax =  -6.08011876050862E-03  6.68780777276252E-10
 cg2d: Sum(rhs),rhsMax =  -6.08158612007639E-03  6.68619398942609E-10
 cg2d: Sum(rhs),rhsMax =  -6.08372239650107E-03  6.68384599335681E-10
 cg2d: Sum(rhs),rhsMax =  -6.08652675704041E-03  6.68076625034434E-10
 cg2d: Sum(rhs),rhsMax =  -6.08999867564364E-03  6.67695735573332E-10
 cg2d: Sum(rhs),rhsMax =  -6.09413795633185E-03  6.67242203244385E-10
 cg2d: Sum(rhs),rhsMax =  -6.09894469027960E-03  6.66716313639284E-10
 cg2d: Sum(rhs),rhsMax =  -6.10441931024774E-03  6.66118364488701E-10
 cg2d: Sum(rhs),rhsMax =  -6.11056252562828E-03  6.65448666576899E-10
 cg2d: Sum(rhs),rhsMax =  -6.11737538272806E-03  6.64707542971558E-10
 cg2d: Sum(rhs),rhsMax =  -6.12485921728038E-03  6.63895329500365E-10
(PID.TID 0000.0001)      cg2d_init_res =   2.10427371433766E-01
(PID.TID 0000.0001)      cg2d_iters(min,last) =      -1     540
(PID.TID 0000.0001)      cg2d_last_res =   9.73538151137078E-08
(PID.TID 0000.0001) // =======================================================
(PID.TID 0000.0001) // Begin MONITOR dynamic field statistics
(PID.TID 0000.0001) // =======================================================
(PID.TID 0000.0001) %MON time_tsnumber                =                  2672
(PID.TID 0000.0001) %MON time_secondsf                =   1.4428800000000E+07
(PID.TID 0000.0001) %MON dynstat_eta_max              =   4.1474639307513E-09
(PID.TID 0000.0001) %MON dynstat_eta_min              =  -6.1041574642244E-09
(PID.TID 0000.0001) %MON dynstat_eta_mean             =   3.9187089996226E-13
(PID.TID 0000.0001) %MON dynstat_eta_sd               =   2.1028148552673E-09
(PID.TID 0000.0001) %MON dynstat_eta_del2             =   2.2055300439053E-14
(PID.TID 0000.0001) %MON dynstat_uvel_max             =   2.6818131182254E-09
(PID.TID 0000.0001) %MON dynstat_uvel_min             =  -2.9501441267752E-09
(PID.TID 0000.0001) %MON dynstat_uvel_mean            =  -7.5469404526564E-14
(PID.TID 0000.0001) %MON dynstat_uvel_sd              =   8.8266143247534E-10
(PID.TID 0000.0001) %MON dynstat_uvel_del2            =   7.7349825651701E-14
(PID.TID 0000.0001) %MON dynstat_vvel_max             =   5.2248461071964E-09
(PID.TID 0000.0001) %MON dynstat_vvel_min             =  -4.7886560874753E-09
(PID.TID 0000.0001) %MON dynstat_vvel_mean            =   4.3382455428855E-15
(PID.TID 0000.0001) %MON dynstat_vvel_sd              =   1.7136158970432E-09
(PID.TID 0000.0001) %MON dynstat_vvel_del2            =   9.7227858330987E-14
(PID.TID 0000.0001) %MON dynstat_wvel_max             =   1.3407105446950E-14
(PID.TID 0000.0001) %MON dynstat_wvel_min             =  -6.4019952453198E-15
(PID.TID 0000.0001) %MON dynstat_wvel_mean            =  -1.3222850578758E-28
(PID.TID 0000.0001) %MON dynstat_wvel_sd              =   5.1528278222797E-15
(PID.TID 0000.0001) %MON dynstat_wvel_del2            =   3.6058173050125E-20
(PID.TID 0000.0001) %MON dynstat_theta_max            =   2.0000000000000E+01
(PID.TID 0000.0001) %MON dynstat_theta_min            =   2.0000000000000E+01
(PID.TID 0000.0001) %MON dynstat_theta_mean           =   2.0000000000000E+01
(PID.TID 0000.0001) %MON dynstat_theta_sd             =   0.0000000000000E+00
(PID.TID 0000.0001) %MON dynstat_theta_del2           =   0.0000000000000E+00
(PID.TID 0000.0001) %MON dynstat_salt_max             =   3.0000000000000E+01
(PID.TID 0000.0001) %MON dynstat_salt_min             =   3.0000000000000E+01
(PID.TID 0000.0001) %MON dynstat_salt_mean            =   3.0000000000000E+01
(PID.TID 0000.0001) %MON dynstat_salt_sd              =   0.0000000000000E+00
(PID.TID 0000.0001) %MON dynstat_salt_del2            =   0.0000000000000E+00
(PID.TID 0000.0001) %MON trAdv_CFL_u_max              =   3.2072429099209E-09
(PID.TID 0000.0001) %MON trAdv_CFL_v_max              =   5.6335566628885E-09
(PID.TID 0000.0001) %MON trAdv_CFL_w_max              =   1.4431347811561E-14
(PID.TID 0000.0001) %MON advcfl_uvel_max              =   3.1861556569173E-09
(PID.TID 0000.0001) %MON advcfl_vvel_max              =   5.6428337957721E-09
(PID.TID 0000.0001) %MON advcfl_wvel_max              =   2.8959347765412E-14
(PID.TID 0000.0001) %MON advcfl_W_hf_max              =   0.0000000000000E+00
(PID.TID 0000.0001) %MON pe_b_mean                    =   4.3378156901830E-21
(PID.TID 0000.0001) %MON ke_max                       =   1.4382822586364E-17
(PID.TID 0000.0001) %MON ke_mean                      =   1.8502333534752E-18
(PID.TID 0000.0001) %MON ke_vol                       =   7.5645000000000E+15
(PID.TID 0000.0001) %MON vort_r_min                   =  -2.7849093838548E-13
(PID.TID 0000.0001) %MON vort_r_max                   =   1.5400363417158E-13
(PID.TID 0000.0001) %MON vort_a_mean                  =   8.2300000000000E-05
(PID.TID 0000.0001) %MON vort_a_sd                    =   7.1297555115595E-06
(PID.TID 0000.0001) %MON vort_p_mean                  =   8.3303658536586E-05
(PID.TID 0000.0001) %MON vort_p_sd                    =   1.7411470229121E-05
(PID.TID 0000.0001) %MON surfExpan_theta_mean         =  -2.5430785552281E-27
(PID.TID 0000.0001) %MON surfExpan_salt_mean          =  -3.8517206641030E-27
(PID.TID 0000.0001) // =======================================================
(PID.TID 0000.0001) // End MONITOR dynamic field statistics
(PID.TID 0000.0001) // =======================================================
 cg2d: Sum(rhs),rhsMax =  -6.13301573897506E-03  6.63012374207278E-10
 cg2d: Sum(rhs),rhsMax =  -6.14184686515985E-03  6.62059037178231E-10
 cg2d: Sum(rhs),rhsMax =  -6.15135487177248E-03  6.61035691581183E-10
 cg2d: Sum(rhs),rhsMax =  -6.16154234171227E-03  6.59942721315130E-10
 cg2d: Sum(rhs),rhsMax =  -6.17209210710859E-03  6.58814684785194E-10
 cg2d: Sum(rhs),rhsMax =  -6.18327703084727E-03  6.57622937833529E-10
 cg2d: Sum(rhs),rhsMax =  -6.19514888262027E-03  6.56362713273916E-10
 cg2d: Sum(rhs),rhsMax =  -6.20771122155525E-03  6.55034441184573E-10
 cg2d: Sum(rhs),rhsMax =  -6.22096796895189E-03  6.53638563982738E-10
 cg2d: Sum(rhs),rhsMax =  -6.23492337797499E-03  6.52175534931731E-10
 cg2d: Sum(rhs),rhsMax =  -6.24958201949640E-03  6.50645818798994E-10
 cg2d: Sum(rhs),rhsMax =  -6.26494880048511E-03  6.49049891542304E-10
 cg2d: Sum(rhs),rhsMax =  -6.28102893171939E-03  6.47388240163274E-10
 cg2d: Sum(rhs),rhsMax =  -6.29782796880661E-03  6.45661362866615E-10
 cg2d: Sum(rhs),rhsMax =  -6.31535183687980E-03  6.43869768458867E-10
 cg2d: Sum(rhs),rhsMax =  -6.33360677403214E-03  6.42013976390862E-10
(PID.TID 0000.0001)      cg2d_init_res =   2.12834005213422E-01
(PID.TID 0000.0001)      cg2d_iters(min,last) =      -1     547
(PID.TID 0000.0001)      cg2d_last_res =   9.02517615319263E-08
(PID.TID 0000.0001) // =======================================================
(PID.TID 0000.0001) // Begin MONITOR dynamic field statistics
(PID.TID 0000.0001) // =======================================================
(PID.TID 0000.0001) %MON time_tsnumber                =                  2688
(PID.TID 0000.0001) %MON time_secondsf                =   1.4515200000000E+07
(PID.TID 0000.0001) %MON dynstat_eta_max              =   4.0793599544616E-09
(PID.TID 0000.0001) %MON dynstat_eta_min              =  -5.7223831210031E-09
(PID.TID 0000.0001) %MON dynstat_eta_mean             =   3.9187077357793E-13
(PID.TID 0000.0001) %MON dynstat_eta_sd               =   2.0569356974645E-09
(PID.TID 0000.0001) %MON dynstat_eta_del2             =   2.1851602662170E-14
(PID.TID 0000.0001) %MON dynstat_uvel_max             =   2.7468790473667E-09
(PID.TID 0000.0001) %MON dynstat_uvel_min             =  -2.6244396874754E-09
(PID.TID 0000.0001) %MON dynstat_uvel_mean            =  -1.2205862570255E-13
(PID.TID 0000.0001) %MON dynstat_uvel_sd              =   8.6905145245817E-10
(PID.TID 0000.0001) %MON dynstat_uvel_del2            =   7.7023564316214E-14
(PID.TID 0000.0001) %MON dynstat_vvel_max             =   5.3218402239070E-09
(PID.TID 0000.0001) %MON dynstat_vvel_min             =  -4.8709963152214E-09
(PID.TID 0000.0001) %MON dynstat_vvel_mean            =   4.5985141180366E-15
(PID.TID 0000.0001) %MON dynstat_vvel_sd              =   1.7010409652603E-09
(PID.TID 0000.0001) %MON dynstat_vvel_del2            =   9.1567615448412E-14
(PID.TID 0000.0001) %MON dynstat_wvel_max             =   1.3980390545232E-14
(PID.TID 0000.0001) %MON dynstat_wvel_min             =  -6.8017908108620E-15
(PID.TID 0000.0001) %MON dynstat_wvel_mean            =  -8.9912970010911E-28
(PID.TID 0000.0001) %MON dynstat_wvel_sd              =   5.1429482939632E-15
(PID.TID 0000.0001) %MON dynstat_wvel_del2            =   3.4999533408338E-20
(PID.TID 0000.0001) %MON dynstat_theta_max            =   2.0000000000000E+01
(PID.TID 0000.0001) %MON dynstat_theta_min            =   2.0000000000000E+01
(PID.TID 0000.0001) %MON dynstat_theta_mean           =   2.0000000000000E+01
(PID.TID 0000.0001) %MON dynstat_theta_sd             =   0.0000000000000E+00
(PID.TID 0000.0001) %MON dynstat_theta_del2           =   0.0000000000000E+00
(PID.TID 0000.0001) %MON dynstat_salt_max             =   3.0000000000000E+01
(PID.TID 0000.0001) %MON dynstat_salt_min             =   3.0000000000000E+01
(PID.TID 0000.0001) %MON dynstat_salt_mean            =   3.0000000000000E+01
(PID.TID 0000.0001) %MON dynstat_salt_sd              =   0.0000000000000E+00
(PID.TID 0000.0001) %MON dynstat_salt_del2            =   0.0000000000000E+00
(PID.TID 0000.0001) %MON trAdv_CFL_u_max              =   2.9644195173370E-09
(PID.TID 0000.0001) %MON trAdv_CFL_v_max              =   5.7436126328847E-09
(PID.TID 0000.0001) %MON trAdv_CFL_w_max              =   1.5070213351231E-14
(PID.TID 0000.0001) %MON advcfl_uvel_max              =   2.9666293711560E-09
(PID.TID 0000.0001) %MON advcfl_vvel_max              =   5.7475874418196E-09
(PID.TID 0000.0001) %MON advcfl_wvel_max              =   3.0197643577701E-14
(PID.TID 0000.0001) %MON advcfl_W_hf_max              =   0.0000000000000E+00
(PID.TID 0000.0001) %MON pe_b_mean                    =   4.1505959093423E-21
(PID.TID 0000.0001) %MON ke_max                       =   1.5113671953948E-17
(PID.TID 0000.0001) %MON ke_mean                      =   1.8169791622379E-18
(PID.TID 0000.0001) %MON ke_vol                       =   7.5645000000000E+15
(PID.TID 0000.0001) %MON vort_r_min                   =  -2.7414196963120E-13
(PID.TID 0000.0001) %MON vort_r_max                   =   1.5167486062224E-13
(PID.TID 0000.0001) %MON vort_a_mean                  =   8.2299999999999E-05
(PID.TID 0000.0001) %MON vort_a_sd                    =   7.1297555115769E-06
(PID.TID 0000.0001) %MON vort_p_mean                  =   8.3303658536584E-05
(PID.TID 0000.0001) %MON vort_p_sd                    =   1.7411470229199E-05
(PID.TID 0000.0001) %MON surfExpan_theta_mean         =  -1.7926253918945E-26
(PID.TID 0000.0001) %MON surfExpan_salt_mean          =  -2.6862454311846E-26
(PID.TID 0000.0001) // =======================================================
(PID.TID 0000.0001) // End MONITOR dynamic field statistics
(PID.TID 0000.0001) // =======================================================
 cg2d: Sum(rhs),rhsMax =  -6.35259935658629E-03  6.40094516662895E-10
 cg2d: Sum(rhs),rhsMax =  -6.37233652358087E-03  6.38111930101058E-10
 cg2d: Sum(rhs),rhsMax =  -6.39282558268357E-03  6.36066767690118E-10
 cg2d: Sum(rhs),rhsMax =  -6.41407419443980E-03  6.33959590448218E-10
 cg2d: Sum(rhs),rhsMax =  -6.43609039577227E-03  6.31790969661842E-10
 cg2d: Sum(rhs),rhsMax =  -6.45888260804565E-03  6.29561486367411E-10
 cg2d: Sum(rhs),rhsMax =  -6.48245963361717E-03  6.27271731514291E-10
 cg2d: Sum(rhs),rhsMax =  -6.50683066381471E-03  6.24922305597041E-10
 cg2d: Sum(rhs),rhsMax =  -6.53167502541360E-03  6.22545296457237E-10
 cg2d: Sum(rhs),rhsMax =  -6.55724205130847E-03  6.20117951270694E-10
 cg2d: Sum(rhs),rhsMax =  -6.58362723252631E-03  6.17632698032619E-10
 cg2d: Sum(rhs),rhsMax =  -6.61084110397312E-03  6.15090172307107E-10
 cg2d: Sum(rhs),rhsMax =  -6.63889462697926E-03  6.12491019043429E-10
 cg2d: Sum(rhs),rhsMax =  -6.66779921077768E-03  6.09835891493066E-10
 cg2d: Sum(rhs),rhsMax =  -6.69756671131621E-03  6.07125451912948E-10
 cg2d: Sum(rhs),rhsMax =  -6.72820944825114E-03  6.04360370636953E-10
(PID.TID 0000.0001)      cg2d_init_res =   2.22508314542494E-01
(PID.TID 0000.0001)      cg2d_iters(min,last) =      -1     547
(PID.TID 0000.0001)      cg2d_last_res =   9.96311590537500E-08
(PID.TID 0000.0001) // =======================================================
(PID.TID 0000.0001) // Begin MONITOR dynamic field statistics
(PID.TID 0000.0001) // =======================================================
(PID.TID 0000.0001) %MON time_tsnumber                =                  2704
(PID.TID 0000.0001) %MON time_secondsf                =   1.4601600000000E+07
(PID.TID 0000.0001) %MON dynstat_eta_max              =   3.8930329222009E-09
(PID.TID 0000.0001) %MON dynstat_eta_min              =  -5.3079868722885E-09
(PID.TID 0000.0001) %MON dynstat_eta_mean             =   3.9187068531516E-13
(PID.TID 0000.0001) %MON dynstat_eta_sd               =   2.0133258495626E-09
(PID.TID 0000.0001) %MON dynstat_eta_del2             =   2.1573776401803E-14
(PID.TID 0000.0001) %MON dynstat_uvel_max             =   2.7487597514240E-09
(PID.TID 0000.0001) %MON dynstat_uvel_min             =  -2.5124860642457E-09
(PID.TID 0000.0001) %MON dynstat_uvel_mean            =  -1.6039637556140E-13
(PID.TID 0000.0001) %MON dynstat_uvel_sd              =   8.6577516466361E-10
(PID.TID 0000.0001) %MON dynstat_uvel_del2            =   7.6052191496180E-14
(PID.TID 0000.0001) %MON dynstat_vvel_max             =   5.3381662856174E-09
(PID.TID 0000.0001) %MON dynstat_vvel_min             =  -4.8342405284159E-09
(PID.TID 0000.0001) %MON dynstat_vvel_mean            =   5.1947469693644E-15
(PID.TID 0000.0001) %MON dynstat_vvel_sd              =   1.6836868239009E-09
(PID.TID 0000.0001) %MON dynstat_vvel_del2            =   8.5520009057594E-14
(PID.TID 0000.0001) %MON dynstat_wvel_max             =   1.4275379761619E-14
(PID.TID 0000.0001) %MON dynstat_wvel_min             =  -7.2369592826749E-15
(PID.TID 0000.0001) %MON dynstat_wvel_mean            =   1.9165318326237E-28
(PID.TID 0000.0001) %MON dynstat_wvel_sd              =   5.1272726496108E-15
(PID.TID 0000.0001) %MON dynstat_wvel_del2            =   3.4191780624779E-20
(PID.TID 0000.0001) %MON dynstat_theta_max            =   2.0000000000000E+01
(PID.TID 0000.0001) %MON dynstat_theta_min            =   2.0000000000000E+01
(PID.TID 0000.0001) %MON dynstat_theta_mean           =   2.0000000000000E+01
(PID.TID 0000.0001) %MON dynstat_theta_sd             =   0.0000000000000E+00
(PID.TID 0000.0001) %MON dynstat_theta_del2           =   0.0000000000000E+00
(PID.TID 0000.0001) %MON dynstat_salt_max             =   3.0000000000000E+01
(PID.TID 0000.0001) %MON dynstat_salt_min             =   3.0000000000000E+01
(PID.TID 0000.0001) %MON dynstat_salt_mean            =   3.0000000000000E+01
(PID.TID 0000.0001) %MON dynstat_salt_sd              =   0.0000000000000E+00
(PID.TID 0000.0001) %MON dynstat_salt_del2            =   0.0000000000000E+00
(PID.TID 0000.0001) %MON trAdv_CFL_u_max              =   2.9707141639547E-09
(PID.TID 0000.0001) %MON trAdv_CFL_v_max              =   5.7671683330698E-09
(PID.TID 0000.0001) %MON trAdv_CFL_w_max              =   1.5405744892183E-14
(PID.TID 0000.0001) %MON advcfl_uvel_max              =   2.9686605315379E-09
(PID.TID 0000.0001) %MON advcfl_vvel_max              =   5.7652195884668E-09
(PID.TID 0000.0001) %MON advcfl_wvel_max              =   3.0834820285097E-14
(PID.TID 0000.0001) %MON advcfl_W_hf_max              =   0.0000000000000E+00
(PID.TID 0000.0001) %MON pe_b_mean                    =   3.9764649886082E-21
(PID.TID 0000.0001) %MON ke_max                       =   1.5414446079852E-17
(PID.TID 0000.0001) %MON ke_mean                      =   1.7848986904626E-18
(PID.TID 0000.0001) %MON ke_vol                       =   7.5645000000000E+15
(PID.TID 0000.0001) %MON vort_r_min                   =  -2.6279700068968E-13
(PID.TID 0000.0001) %MON vort_r_max                   =   1.4538848753826E-13
(PID.TID 0000.0001) %MON vort_a_mean                  =   8.2300000000001E-05
(PID.TID 0000.0001) %MON vort_a_sd                    =   7.1297555115437E-06
(PID.TID 0000.0001) %MON vort_p_mean                  =   8.3303658536587E-05
(PID.TID 0000.0001) %MON vort_p_sd                    =   1.7411470229256E-05
(PID.TID 0000.0001) %MON surfExpan_theta_mean         =   3.7395555635326E-27
(PID.TID 0000.0001) %MON surfExpan_salt_mean          =   5.6563638573191E-27
(PID.TID 0000.0001) // =======================================================
(PID.TID 0000.0001) // End MONITOR dynamic field statistics
(PID.TID 0000.0001) // =======================================================
 cg2d: Sum(rhs),rhsMax =  -6.75974021902292E-03  6.01541326609366E-10
 cg2d: Sum(rhs),rhsMax =  -6.79217229258098E-03  5.98669006626764E-10
 cg2d: Sum(rhs),rhsMax =  -6.82551945264508E-03  5.95744105691185E-10
 cg2d: Sum(rhs),rhsMax =  -6.85979598059835E-03  5.92767326427687E-10
 cg2d: Sum(rhs),rhsMax =  -6.89501669277593E-03  5.89739379257660E-10
 cg2d: Sum(rhs),rhsMax =  -6.93119694440719E-03  5.86660981986857E-10
 cg2d: Sum(rhs),rhsMax =  -6.96835264961879E-03  5.83532859808944E-10
 cg2d: Sum(rhs),rhsMax =  -7.00650028804118E-03  5.80355745050210E-10
 cg2d: Sum(rhs),rhsMax =  -7.04565692590392E-03  5.77130377020385E-10
 cg2d: Sum(rhs),rhsMax =  -7.08584024812379E-03  5.73857501895454E-10
 cg2d: Sum(rhs),rhsMax =  -7.12700220386745E-03  5.70543183497808E-10
 cg2d: Sum(rhs),rhsMax =  -7.16878937310046E-03  5.67217455459835E-10
 cg2d: Sum(rhs),rhsMax =  -7.21164937695462E-03  5.63846382811258E-10
 cg2d: Sum(rhs),rhsMax =  -7.25560199850213E-03  5.60430735026269E-10
 cg2d: Sum(rhs),rhsMax =  -7.30066772477511E-03  5.56971287923583E-10
 cg2d: Sum(rhs),rhsMax =  -7.34686776244534E-03  5.53468822763298E-10
(PID.TID 0000.0001)      cg2d_init_res =   2.40309312374619E-01
(PID.TID 0000.0001)      cg2d_iters(min,last) =      -1     547
(PID.TID 0000.0001)      cg2d_last_res =   9.43113738567833E-08
(PID.TID 0000.0001) // =======================================================
(PID.TID 0000.0001) // Begin MONITOR dynamic field statistics
(PID.TID 0000.0001) // =======================================================
(PID.TID 0000.0001) %MON time_tsnumber                =                  2720
(PID.TID 0000.0001) %MON time_secondsf                =   1.4688000000000E+07
(PID.TID 0000.0001) %MON dynstat_eta_max              =   4.4654010614819E-09
(PID.TID 0000.0001) %MON dynstat_eta_min              =  -4.8831033732961E-09
(PID.TID 0000.0001) %MON dynstat_eta_mean             =   3.9187059863103E-13
(PID.TID 0000.0001) %MON dynstat_eta_sd               =   1.9750540766394E-09
(PID.TID 0000.0001) %MON dynstat_eta_del2             =   2.1216300478621E-14
(PID.TID 0000.0001) %MON dynstat_uvel_max             =   2.6902662984447E-09
(PID.TID 0000.0001) %MON dynstat_uvel_min             =  -2.5928611935471E-09
(PID.TID 0000.0001) %MON dynstat_uvel_mean            =  -1.8861937014521E-13
(PID.TID 0000.0001) %MON dynstat_uvel_sd              =   8.6875871724401E-10
(PID.TID 0000.0001) %MON dynstat_uvel_del2            =   7.4356783380293E-14
(PID.TID 0000.0001) %MON dynstat_vvel_max             =   5.2726545333741E-09
(PID.TID 0000.0001) %MON dynstat_vvel_min             =  -4.6793030504439E-09
(PID.TID 0000.0001) %MON dynstat_vvel_mean            =   6.0111678762309E-15
(PID.TID 0000.0001) %MON dynstat_vvel_sd              =   1.6637383996120E-09
(PID.TID 0000.0001) %MON dynstat_vvel_del2            =   7.9420304725276E-14
(PID.TID 0000.0001) %MON dynstat_wvel_max             =   1.4285115881307E-14
(PID.TID 0000.0001) %MON dynstat_wvel_min             =  -7.7612389920434E-15
(PID.TID 0000.0001) %MON dynstat_wvel_mean            =  -3.7425907957200E-29
(PID.TID 0000.0001) %MON dynstat_wvel_sd              =   5.0996424266159E-15
(PID.TID 0000.0001) %MON dynstat_wvel_del2            =   3.3569133678840E-20
(PID.TID 0000.0001) %MON dynstat_theta_max            =   2.0000000000000E+01
(PID.TID 0000.0001) %MON dynstat_theta_min            =   2.0000000000000E+01
(PID.TID 0000.0001) %MON dynstat_theta_mean           =   2.0000000000000E+01
(PID.TID 0000.0001) %MON dynstat_theta_sd             =   0.0000000000000E+00
(PID.TID 0000.0001) %MON dynstat_theta_del2           =   0.0000000000000E+00
(PID.TID 0000.0001) %MON dynstat_salt_max             =   3.0000000000000E+01
(PID.TID 0000.0001) %MON dynstat_salt_min             =   3.0000000000000E+01
(PID.TID 0000.0001) %MON dynstat_salt_mean            =   3.0000000000000E+01
(PID.TID 0000.0001) %MON dynstat_salt_sd              =   0.0000000000000E+00
(PID.TID 0000.0001) %MON dynstat_salt_del2            =   0.0000000000000E+00
(PID.TID 0000.0001) %MON trAdv_CFL_u_max              =   2.9109415610258E-09
(PID.TID 0000.0001) %MON trAdv_CFL_v_max              =   5.7021219052530E-09
(PID.TID 0000.0001) %MON trAdv_CFL_w_max              =   1.5437486337255E-14
(PID.TID 0000.0001) %MON advcfl_uvel_max              =   2.9054876023203E-09
(PID.TID 0000.0001) %MON advcfl_vvel_max              =   5.6944668960441E-09
(PID.TID 0000.0001) %MON advcfl_wvel_max              =   3.0855850303624E-14
(PID.TID 0000.0001) %MON advcfl_W_hf_max              =   0.0000000000000E+00
(PID.TID 0000.0001) %MON pe_b_mean                    =   3.8267228227874E-21
(PID.TID 0000.0001) %MON ke_max                       =   1.5262750145026E-17
(PID.TID 0000.0001) %MON ke_mean                      =   1.7542235074236E-18
(PID.TID 0000.0001) %MON ke_vol                       =   7.5645000000000E+15
(PID.TID 0000.0001) %MON vort_r_min                   =  -2.4534004944134E-13
(PID.TID 0000.0001) %MON vort_r_max                   =   1.4357678307348E-13
(PID.TID 0000.0001) %MON vort_a_mean                  =   8.2300000000000E-05
(PID.TID 0000.0001) %MON vort_a_sd                    =   7.1297555115631E-06
(PID.TID 0000.0001) %MON vort_p_mean                  =   8.3303658536585E-05
(PID.TID 0000.0001) %MON vort_p_sd                    =   1.7411470229331E-05
(PID.TID 0000.0001) %MON surfExpan_theta_mean         =  -6.3698400490035E-28
(PID.TID 0000.0001) %MON surfExpan_salt_mean          =  -9.4019593385164E-28
(PID.TID 0000.0001) // =======================================================
(PID.TID 0000.0001) // End MONITOR dynamic field statistics
(PID.TID 0000.0001) // =======================================================
 cg2d: Sum(rhs),rhsMax =  -7.39422404167284E-03  5.49924126752147E-10
 cg2d: Sum(rhs),rhsMax =  -7.44275925568203E-03  5.46337992236123E-10
 cg2d: Sum(rhs),rhsMax =  -7.49249683724730E-03  5.42711216937578E-10
 cg2d: Sum(rhs),rhsMax =  -7.54346110031968E-03  5.39044603978156E-10
 cg2d: Sum(rhs),rhsMax =  -7.59567717682381E-03  5.35338960965887E-10
 cg2d: Sum(rhs),rhsMax =  -7.64917105047473E-03  5.31595100321859E-10
 cg2d: Sum(rhs),rhsMax =  -7.70396961429717E-03  5.27813839212343E-10
 cg2d: Sum(rhs),rhsMax =  -7.76010065601823E-03  5.23995999076263E-10
 cg2d: Sum(rhs),rhsMax =  -7.81759298083491E-03  5.20142405298981E-10
 cg2d: Sum(rhs),rhsMax =  -7.87647634985944E-03  5.16253887702271E-10
 cg2d: Sum(rhs),rhsMax =  -7.93678156472996E-03  5.12331279717068E-10
 cg2d: Sum(rhs),rhsMax =  -7.99854051124112E-03  5.08375418453679E-10
 cg2d: Sum(rhs),rhsMax =  -8.06128084822396E-03  5.04418761107533E-10
 cg2d: Sum(rhs),rhsMax =  -8.12539149923085E-03  5.00438806040928E-10
 cg2d: Sum(rhs),rhsMax =  -8.19103928504993E-03  4.96427987273708E-10
 cg2d: Sum(rhs),rhsMax =  -8.25825988895241E-03  4.92387152429088E-10
(PID.TID 0000.0001)      cg2d_init_res =   2.67966422261151E-01
(PID.TID 0000.0001)      cg2d_iters(min,last) =      -1     544
(PID.TID 0000.0001)      cg2d_last_res =   8.87824834895289E-08
(PID.TID 0000.0001) // =======================================================
(PID.TID 0000.0001) // Begin MONITOR dynamic field statistics
(PID.TID 0000.0001) // =======================================================
(PID.TID 0000.0001) %MON time_tsnumber                =                  2736
(PID.TID 0000.0001) %MON time_secondsf                =   1.4774400000000E+07
(PID.TID 0000.0001) %MON dynstat_eta_max              =   5.0545168175291E-09
(PID.TID 0000.0001) %MON dynstat_eta_min              =  -4.4464259292417E-09
(PID.TID 0000.0001) %MON dynstat_eta_mean             =   3.9187048288079E-13
(PID.TID 0000.0001) %MON dynstat_eta_sd               =   1.9443186961715E-09
(PID.TID 0000.0001) %MON dynstat_eta_del2             =   2.0783889238540E-14
(PID.TID 0000.0001) %MON dynstat_uvel_max             =   2.5713170985987E-09
(PID.TID 0000.0001) %MON dynstat_uvel_min             =  -2.6189347243723E-09
(PID.TID 0000.0001) %MON dynstat_uvel_mean            =  -2.0545174238872E-13
(PID.TID 0000.0001) %MON dynstat_uvel_sd              =   8.7336417735392E-10
(PID.TID 0000.0001) %MON dynstat_uvel_del2            =   7.1982328209128E-14
(PID.TID 0000.0001) %MON dynstat_vvel_max             =   5.1312757380331E-09
(PID.TID 0000.0001) %MON dynstat_vvel_min             =  -4.4196729940015E-09
(PID.TID 0000.0001) %MON dynstat_vvel_mean            =   6.9104206097190E-15
(PID.TID 0000.0001) %MON dynstat_vvel_sd              =   1.6436420627817E-09
(PID.TID 0000.0001) %MON dynstat_vvel_del2            =   7.3575515111842E-14
(PID.TID 0000.0001) %MON dynstat_wvel_max             =   1.4029401053106E-14
(PID.TID 0000.0001) %MON dynstat_wvel_min             =  -8.2494934011690E-15
(PID.TID 0000.0001) %MON dynstat_wvel_mean            =  -2.5645444360455E-28
(PID.TID 0000.0001) %MON dynstat_wvel_sd              =   5.0563432462348E-15
(PID.TID 0000.0001) %MON dynstat_wvel_del2            =   3.3129963359456E-20
(PID.TID 0000.0001) %MON dynstat_theta_max            =   2.0000000000000E+01
(PID.TID 0000.0001) %MON dynstat_theta_min            =   2.0000000000000E+01
(PID.TID 0000.0001) %MON dynstat_theta_mean           =   2.0000000000000E+01
(PID.TID 0000.0001) %MON dynstat_theta_sd             =   0.0000000000000E+00
(PID.TID 0000.0001) %MON dynstat_theta_del2           =   0.0000000000000E+00
(PID.TID 0000.0001) %MON dynstat_salt_max             =   3.0000000000000E+01
(PID.TID 0000.0001) %MON dynstat_salt_min             =   3.0000000000000E+01
(PID.TID 0000.0001) %MON dynstat_salt_mean            =   3.0000000000000E+01
(PID.TID 0000.0001) %MON dynstat_salt_sd              =   0.0000000000000E+00
(PID.TID 0000.0001) %MON dynstat_salt_del2            =   0.0000000000000E+00
(PID.TID 0000.0001) %MON trAdv_CFL_u_max              =   2.8286282584085E-09
(PID.TID 0000.0001) %MON trAdv_CFL_v_max              =   5.5530643189545E-09
(PID.TID 0000.0001) %MON trAdv_CFL_w_max              =   1.5176845535714E-14
(PID.TID 0000.0001) %MON advcfl_uvel_max              =   2.8284495023220E-09
(PID.TID 0000.0001) %MON advcfl_vvel_max              =   5.5417777970757E-09
(PID.TID 0000.0001) %MON advcfl_wvel_max              =   3.0303506274709E-14
(PID.TID 0000.0001) %MON advcfl_W_hf_max              =   0.0000000000000E+00
(PID.TID 0000.0001) %MON pe_b_mean                    =   3.7085482142734E-21
(PID.TID 0000.0001) %MON ke_max                       =   1.4677413672069E-17
(PID.TID 0000.0001) %MON ke_mean                      =   1.7251208200746E-18
(PID.TID 0000.0001) %MON ke_vol                       =   7.5645000000000E+15
(PID.TID 0000.0001) %MON vort_r_min                   =  -2.2290330571199E-13
(PID.TID 0000.0001) %MON vort_r_max                   =   1.4104681648028E-13
(PID.TID 0000.0001) %MON vort_a_mean                  =   8.2299999999999E-05
(PID.TID 0000.0001) %MON vort_a_sd                    =   7.1297555115741E-06
(PID.TID 0000.0001) %MON vort_p_mean                  =   8.3303658536585E-05
(PID.TID 0000.0001) %MON vort_p_sd                    =   1.7411470229399E-05
(PID.TID 0000.0001) %MON surfExpan_theta_mean         =  -5.0687786302640E-27
(PID.TID 0000.0001) %MON surfExpan_salt_mean          =  -7.6118034376152E-27
(PID.TID 0000.0001) // =======================================================
(PID.TID 0000.0001) // End MONITOR dynamic field statistics
(PID.TID 0000.0001) // =======================================================
 cg2d: Sum(rhs),rhsMax =  -8.32709025895011E-03  4.88317151865405E-10
 cg2d: Sum(rhs),rhsMax =  -8.39756862006680E-03  4.84218838491730E-10
 cg2d: Sum(rhs),rhsMax =  -8.46973456184703E-03  4.80093067583455E-10
 cg2d: Sum(rhs),rhsMax =  -8.54362906760606E-03  4.75940696598111E-10
 cg2d: Sum(rhs),rhsMax =  -8.61929457442655E-03  4.71762584990824E-10
 cg2d: Sum(rhs),rhsMax =  -8.69677504316659E-03  4.67559594029697E-10
 cg2d: Sum(rhs),rhsMax =  -8.77611599445279E-03  4.63332586611213E-10
 cg2d: Sum(rhs),rhsMax =  -8.85736459639995E-03  4.59082427075492E-10
 cg2d: Sum(rhs),rhsMax =  -8.94056972133295E-03  4.54809981021904E-10
 cg2d: Sum(rhs),rhsMax =  -9.02578199877565E-03  4.50516115124851E-10
 cg2d: Sum(rhs),rhsMax =  -9.11305395025209E-03  4.46201696931820E-10
 cg2d: Sum(rhs),rhsMax =  -9.20243997954982E-03  4.41867594739451E-10
 cg2d: Sum(rhs),rhsMax =  -9.29347331012902E-03  4.37539309104947E-10
 cg2d: Sum(rhs),rhsMax =  -9.38638708595616E-03  4.33208191362770E-10
 cg2d: Sum(rhs),rhsMax =  -9.48155871694841E-03  4.28859828372220E-10
 cg2d: Sum(rhs),rhsMax =  -9.57904962929096E-03  4.24495086819927E-10
(PID.TID 0000.0001)      cg2d_init_res =   3.08573738318721E-01
(PID.TID 0000.0001)      cg2d_iters(min,last) =      -1     547
(PID.TID 0000.0001)      cg2d_last_res =   9.46583187917093E-08
(PID.TID 0000.0001) // =======================================================
(PID.TID 0000.0001) // Begin MONITOR dynamic field statistics
(PID.TID 0000.0001) // =======================================================
(PID.TID 0000.0001) %MON time_tsnumber                =                  2752
(PID.TID 0000.0001) %MON time_secondsf                =   1.4860800000000E+07
(PID.TID 0000.0001) %MON dynstat_eta_max              =   5.5640762442134E-09
(PID.TID 0000.0001) %MON dynstat_eta_min              =  -3.9814645341083E-09
(PID.TID 0000.0001) %MON dynstat_eta_mean             =   3.9187032814462E-13
(PID.TID 0000.0001) %MON dynstat_eta_sd               =   1.9220055149848E-09
(PID.TID 0000.0001) %MON dynstat_eta_del2             =   2.0290068918533E-14
(PID.TID 0000.0001) %MON dynstat_uvel_max             =   2.5155011440154E-09
(PID.TID 0000.0001) %MON dynstat_uvel_min             =  -2.5905330422376E-09
(PID.TID 0000.0001) %MON dynstat_uvel_mean            =  -2.1026557475180E-13
(PID.TID 0000.0001) %MON dynstat_uvel_sd              =   8.7559036235088E-10
(PID.TID 0000.0001) %MON dynstat_uvel_del2            =   6.9085272605695E-14
(PID.TID 0000.0001) %MON dynstat_vvel_max             =   4.9164839694808E-09
(PID.TID 0000.0001) %MON dynstat_vvel_min             =  -4.0724062365689E-09
(PID.TID 0000.0001) %MON dynstat_vvel_mean            =   7.7428942831338E-15
(PID.TID 0000.0001) %MON dynstat_vvel_sd              =   1.6255932888305E-09
(PID.TID 0000.0001) %MON dynstat_vvel_del2            =   6.8229346559391E-14
(PID.TID 0000.0001) %MON dynstat_wvel_max             =   1.3527340497199E-14
(PID.TID 0000.0001) %MON dynstat_wvel_min             =  -8.6126602216741E-15
(PID.TID 0000.0001) %MON dynstat_wvel_mean            =  -7.7937345185810E-28
(PID.TID 0000.0001) %MON dynstat_wvel_sd              =   4.9967460527054E-15
(PID.TID 0000.0001) %MON dynstat_wvel_del2            =   3.2832128759551E-20
(PID.TID 0000.0001) %MON dynstat_theta_max            =   2.0000000000000E+01
(PID.TID 0000.0001) %MON dynstat_theta_min            =   2.0000000000000E+01
(PID.TID 0000.0001) %MON dynstat_theta_mean           =   2.0000000000000E+01
(PID.TID 0000.0001) %MON dynstat_theta_sd             =   0.0000000000000E+00
(PID.TID 0000.0001) %MON dynstat_theta_del2           =   0.0000000000000E+00
(PID.TID 0000.0001) %MON dynstat_salt_max             =   3.0000000000000E+01
(PID.TID 0000.0001) %MON dynstat_salt_min             =   3.0000000000000E+01
(PID.TID 0000.0001) %MON dynstat_salt_mean            =   3.0000000000000E+01
(PID.TID 0000.0001) %MON dynstat_salt_sd              =   0.0000000000000E+00
(PID.TID 0000.0001) %MON dynstat_salt_del2            =   0.0000000000000E+00
(PID.TID 0000.0001) %MON trAdv_CFL_u_max              =   2.8015017297034E-09
(PID.TID 0000.0001) %MON trAdv_CFL_v_max              =   5.3265407066175E-09
(PID.TID 0000.0001) %MON trAdv_CFL_w_max              =   1.4649118375742E-14
(PID.TID 0000.0001) %MON advcfl_uvel_max              =   2.7977756856166E-09
(PID.TID 0000.0001) %MON advcfl_vvel_max              =   5.3098026870393E-09
(PID.TID 0000.0001) %MON advcfl_wvel_max              =   2.9219055473950E-14
(PID.TID 0000.0001) %MON advcfl_W_hf_max              =   0.0000000000000E+00
(PID.TID 0000.0001) %MON pe_b_mean                    =   3.6239173514835E-21
(PID.TID 0000.0001) %MON ke_max                       =   1.3707333629913E-17
(PID.TID 0000.0001) %MON ke_mean                      =   1.6976767409818E-18
(PID.TID 0000.0001) %MON ke_vol                       =   7.5645000000000E+15
(PID.TID 0000.0001) %MON vort_r_min                   =  -1.9679752554104E-13
(PID.TID 0000.0001) %MON vort_r_max                   =   1.4046781892523E-13
(PID.TID 0000.0001) %MON vort_a_mean                  =   8.2300000000000E-05
(PID.TID 0000.0001) %MON vort_a_sd                    =   7.1297555115593E-06
(PID.TID 0000.0001) %MON vort_p_mean                  =   8.3303658536585E-05
(PID.TID 0000.0001) %MON vort_p_sd                    =   1.7411470229449E-05
(PID.TID 0000.0001) %MON surfExpan_theta_mean         =  -1.5555385800745E-26
(PID.TID 0000.0001) %MON surfExpan_salt_mean          =  -2.3328492215624E-26
(PID.TID 0000.0001) // =======================================================
(PID.TID 0000.0001) // End MONITOR dynamic field statistics
(PID.TID 0000.0001) // =======================================================
 cg2d: Sum(rhs),rhsMax =  -9.67892363318197E-03  4.20114833648581E-10
 cg2d: Sum(rhs),rhsMax =  -9.78124677264509E-03  4.15719934945108E-10
 cg2d: Sum(rhs),rhsMax =  -9.88608771404689E-03  4.11311256815127E-10
 cg2d: Sum(rhs),rhsMax =  -9.99351767003112E-03  4.06889663958021E-10
 cg2d: Sum(rhs),rhsMax =  -1.01036105876740E-02  4.02456020677127E-10
 cg2d: Sum(rhs),rhsMax =  -1.02164433215343E-02  3.98011189897163E-10
 cg2d: Sum(rhs),rhsMax =  -1.03320956925906E-02  3.93556033330866E-10
 cg2d: Sum(rhs),rhsMax =  -1.04506508159105E-02  3.89091411066370E-10
 cg2d: Sum(rhs),rhsMax =  -1.04674773078923E-02  3.88465931955701E-10
 cg2d: Sum(rhs),rhsMax =  -1.04787862420448E-02  3.88046674482313E-10
 cg2d: Sum(rhs),rhsMax =  -1.04919807231886E-02  3.87558655799820E-10
 cg2d: Sum(rhs),rhsMax =  -1.05070670354113E-02  3.87002164153047E-10
 cg2d: Sum(rhs),rhsMax =  -1.05234085208903E-02  3.86401167662166E-10
 cg2d: Sum(rhs),rhsMax =  -1.05387890206936E-02  3.85837201313714E-10
 cg2d: Sum(rhs),rhsMax =  -1.05560692605084E-02  3.85205514607336E-10
 cg2d: Sum(rhs),rhsMax =  -1.05752579023348E-02  3.84506426626266E-10
(PID.TID 0000.0001)      cg2d_init_res =   3.37759131916432E-01
(PID.TID 0000.0001)      cg2d_iters(min,last) =      -1     470
(PID.TID 0000.0001)      cg2d_last_res =   9.69151371280871E-08
(PID.TID 0000.0001) // =======================================================
(PID.TID 0000.0001) // Begin MONITOR dynamic field statistics
(PID.TID 0000.0001) // =======================================================
(PID.TID 0000.0001) %MON time_tsnumber                =                  2768
(PID.TID 0000.0001) %MON time_secondsf                =   1.4947200000000E+07
(PID.TID 0000.0001) %MON dynstat_eta_max              =   5.9612253590237E-09
(PID.TID 0000.0001) %MON dynstat_eta_min              =  -3.4851744310136E-09
(PID.TID 0000.0001) %MON dynstat_eta_mean             =   3.9201916647689E-13
(PID.TID 0000.0001) %MON dynstat_eta_sd               =   1.9075234201100E-09
(PID.TID 0000.0001) %MON dynstat_eta_del2             =   1.9754971839860E-14
(PID.TID 0000.0001) %MON dynstat_uvel_max             =   2.6051597270046E-09
(PID.TID 0000.0001) %MON dynstat_uvel_min             =  -2.5058507113714E-09
(PID.TID 0000.0001) %MON dynstat_uvel_mean            =  -2.0310524149164E-13
(PID.TID 0000.0001) %MON dynstat_uvel_sd              =   8.7281711158453E-10
(PID.TID 0000.0001) %MON dynstat_uvel_del2            =   6.5908013762698E-14
(PID.TID 0000.0001) %MON dynstat_vvel_max             =   4.6372972385235E-09
(PID.TID 0000.0001) %MON dynstat_vvel_min             =  -3.7589988096573E-09
(PID.TID 0000.0001) %MON dynstat_vvel_mean            =   8.3567542764304E-15
(PID.TID 0000.0001) %MON dynstat_vvel_sd              =   1.6110937152158E-09
(PID.TID 0000.0001) %MON dynstat_vvel_del2            =   6.3533634291594E-14
(PID.TID 0000.0001) %MON dynstat_wvel_max             =   1.2816180121056E-14
(PID.TID 0000.0001) %MON dynstat_wvel_min             =  -8.9630301353116E-15
(PID.TID 0000.0001) %MON dynstat_wvel_mean            =  -8.8308303676660E-29
(PID.TID 0000.0001) %MON dynstat_wvel_sd              =   4.9234204026908E-15
(PID.TID 0000.0001) %MON dynstat_wvel_del2            =   3.2593065276253E-20
(PID.TID 0000.0001) %MON dynstat_theta_max            =   2.0000000000000E+01
(PID.TID 0000.0001) %MON dynstat_theta_min            =   2.0000000000000E+01
(PID.TID 0000.0001) %MON dynstat_theta_mean           =   2.0000000000000E+01
(PID.TID 0000.0001) %MON dynstat_theta_sd             =   0.0000000000000E+00
(PID.TID 0000.0001) %MON dynstat_theta_del2           =   0.0000000000000E+00
(PID.TID 0000.0001) %MON dynstat_salt_max             =   3.0000000000000E+01
(PID.TID 0000.0001) %MON dynstat_salt_min             =   3.0000000000000E+01
(PID.TID 0000.0001) %MON dynstat_salt_mean            =   3.0000000000000E+01
(PID.TID 0000.0001) %MON dynstat_salt_sd              =   0.0000000000000E+00
(PID.TID 0000.0001) %MON dynstat_salt_del2            =   0.0000000000000E+00
(PID.TID 0000.0001) %MON trAdv_CFL_u_max              =   2.8091762010811E-09
(PID.TID 0000.0001) %MON trAdv_CFL_v_max              =   5.0285996857488E-09
(PID.TID 0000.0001) %MON trAdv_CFL_w_max              =   1.3894135839654E-14
(PID.TID 0000.0001) %MON advcfl_uvel_max              =   2.8135725051650E-09
(PID.TID 0000.0001) %MON advcfl_vvel_max              =   5.0082810176054E-09
(PID.TID 0000.0001) %MON advcfl_wvel_max              =   2.7682949061481E-14
(PID.TID 0000.0001) %MON advcfl_W_hf_max              =   0.0000000000000E+00
(PID.TID 0000.0001) %MON pe_b_mean                    =   3.5695114826604E-21
(PID.TID 0000.0001) %MON ke_max                       =   1.2458174508509E-17
(PID.TID 0000.0001) %MON ke_mean                      =   1.6718923051769E-18
(PID.TID 0000.0001) %MON ke_vol                       =   7.5645000000000E+15
(PID.TID 0000.0001) %MON vort_r_min                   =  -1.6843494828264E-13
(PID.TID 0000.0001) %MON vort_r_max                   =   1.4106612571362E-13
(PID.TID 0000.0001) %MON vort_a_mean                  =   8.2300000000000E-05
(PID.TID 0000.0001) %MON vort_a_sd                    =   7.1297555115665E-06
(PID.TID 0000.0001) %MON vort_p_mean                  =   8.3303658536585E-05
(PID.TID 0000.0001) %MON vort_p_sd                    =   1.7411470229501E-05
(PID.TID 0000.0001) %MON surfExpan_theta_mean         =  -1.7563311127604E-27
(PID.TID 0000.0001) %MON surfExpan_salt_mean          =  -2.6316740745418E-27
(PID.TID 0000.0001) // =======================================================
(PID.TID 0000.0001) // End MONITOR dynamic field statistics
(PID.TID 0000.0001) // =======================================================
 cg2d: Sum(rhs),rhsMax =  -1.06004090589097E-02  3.83740268559870E-10
 cg2d: Sum(rhs),rhsMax =  -1.06206241105920E-02  3.83009967079108E-10
 cg2d: Sum(rhs),rhsMax =  -1.06420422526788E-02  3.82239178757273E-10
 cg2d: Sum(rhs),rhsMax =  -1.06653983156385E-02  3.81402156865139E-10
 cg2d: Sum(rhs),rhsMax =  -1.06907073313216E-02  3.80499262524090E-10
 cg2d: Sum(rhs),rhsMax =  -1.07164454276987E-02  3.79585429026221E-10
 cg2d: Sum(rhs),rhsMax =  -1.07420602970730E-02  3.78680315030062E-10
 cg2d: Sum(rhs),rhsMax =  -1.07696501085465E-02  3.77710227488932E-10
 cg2d: Sum(rhs),rhsMax =  -1.07992332348431E-02  3.76675555788438E-10
 cg2d: Sum(rhs),rhsMax =  -1.08305735961175E-02  3.75585585643448E-10
 cg2d: Sum(rhs),rhsMax =  -1.08604867315496E-02  3.74551119450933E-10
 cg2d: Sum(rhs),rhsMax =  -1.08924209557482E-02  3.73453028059065E-10
 cg2d: Sum(rhs),rhsMax =  -1.09263983181726E-02  3.72291727897401E-10
 cg2d: Sum(rhs),rhsMax =  -1.09624426633857E-02  3.71067646917241E-10
 cg2d: Sum(rhs),rhsMax =  -1.09977859659837E-02  3.69875164832624E-10
 cg2d: Sum(rhs),rhsMax =  -1.10342069640214E-02  3.68654312620815E-10
(PID.TID 0000.0001)      cg2d_init_res =   3.48296809654364E-01
(PID.TID 0000.0001)      cg2d_iters(min,last) =      -1     553
(PID.TID 0000.0001)      cg2d_last_res =   8.48298308153151E-08
(PID.TID 0000.0001) // =======================================================
(PID.TID 0000.0001) // Begin MONITOR dynamic field statistics
(PID.TID 0000.0001) // =======================================================
(PID.TID 0000.0001) %MON time_tsnumber                =                  2784
(PID.TID 0000.0001) %MON time_secondsf                =   1.5033600000000E+07
(PID.TID 0000.0001) %MON dynstat_eta_max              =   6.2309765071601E-09
(PID.TID 0000.0001) %MON dynstat_eta_min              =  -3.2729684031339E-09
(PID.TID 0000.0001) %MON dynstat_eta_mean             =   3.9201957577155E-13
(PID.TID 0000.0001) %MON dynstat_eta_sd               =   1.8989794721881E-09
(PID.TID 0000.0001) %MON dynstat_eta_del2             =   1.9202593326771E-14
(PID.TID 0000.0001) %MON dynstat_uvel_max             =   2.6386318654230E-09
(PID.TID 0000.0001) %MON dynstat_uvel_min             =  -2.3670115365304E-09
(PID.TID 0000.0001) %MON dynstat_uvel_mean            =  -1.8467452737936E-13
(PID.TID 0000.0001) %MON dynstat_uvel_sd              =   8.6408693489871E-10
(PID.TID 0000.0001) %MON dynstat_uvel_del2            =   6.2739555901635E-14
(PID.TID 0000.0001) %MON dynstat_vvel_max             =   4.3088562014241E-09
(PID.TID 0000.0001) %MON dynstat_vvel_min             =  -3.6597270091673E-09
(PID.TID 0000.0001) %MON dynstat_vvel_mean            =   8.6081826061374E-15
(PID.TID 0000.0001) %MON dynstat_vvel_sd              =   1.6006830730753E-09
(PID.TID 0000.0001) %MON dynstat_vvel_del2            =   5.9534999186885E-14
(PID.TID 0000.0001) %MON dynstat_wvel_max             =   1.1939148290563E-14
(PID.TID 0000.0001) %MON dynstat_wvel_min             =  -9.4529287925083E-15
(PID.TID 0000.0001) %MON dynstat_wvel_mean            =   4.0816532572747E-28
(PID.TID 0000.0001) %MON dynstat_wvel_sd              =   4.8417192161696E-15
(PID.TID 0000.0001) %MON dynstat_wvel_del2            =   3.2345953279080E-20
(PID.TID 0000.0001) %MON dynstat_theta_max            =   2.0000000000000E+01
(PID.TID 0000.0001) %MON dynstat_theta_min            =   2.0000000000000E+01
(PID.TID 0000.0001) %MON dynstat_theta_mean           =   2.0000000000000E+01
(PID.TID 0000.0001) %MON dynstat_theta_sd             =   0.0000000000000E+00
(PID.TID 0000.0001) %MON dynstat_theta_del2           =   0.0000000000000E+00
(PID.TID 0000.0001) %MON dynstat_salt_max             =   3.0000000000000E+01
(PID.TID 0000.0001) %MON dynstat_salt_min             =   3.0000000000000E+01
(PID.TID 0000.0001) %MON dynstat_salt_mean            =   3.0000000000000E+01
(PID.TID 0000.0001) %MON dynstat_salt_sd              =   0.0000000000000E+00
(PID.TID 0000.0001) %MON dynstat_salt_del2            =   0.0000000000000E+00
(PID.TID 0000.0001) %MON trAdv_CFL_u_max              =   2.8493784452874E-09
(PID.TID 0000.0001) %MON trAdv_CFL_v_max              =   4.6773245933741E-09
(PID.TID 0000.0001) %MON trAdv_CFL_w_max              =   1.2957206564290E-14
(PID.TID 0000.0001) %MON advcfl_uvel_max              =   2.8497224146569E-09
(PID.TID 0000.0001) %MON advcfl_vvel_max              =   4.6535646975380E-09
(PID.TID 0000.0001) %MON advcfl_wvel_max              =   2.5788560307616E-14
(PID.TID 0000.0001) %MON advcfl_W_hf_max              =   0.0000000000000E+00
(PID.TID 0000.0001) %MON pe_b_mean                    =   3.5376068488713E-21
(PID.TID 0000.0001) %MON ke_max                       =   1.1021894120048E-17
(PID.TID 0000.0001) %MON ke_mean                      =   1.6476910133933E-18
(PID.TID 0000.0001) %MON ke_vol                       =   7.5645000000000E+15
(PID.TID 0000.0001) %MON vort_r_min                   =  -1.3924923279060E-13
(PID.TID 0000.0001) %MON vort_r_max                   =   1.3783376618588E-13
(PID.TID 0000.0001) %MON vort_a_mean                  =   8.2299999999999E-05
(PID.TID 0000.0001) %MON vort_a_sd                    =   7.1297555115642E-06
(PID.TID 0000.0001) %MON vort_p_mean                  =   8.3303658536585E-05
(PID.TID 0000.0001) %MON vort_p_sd                    =   1.7411470229542E-05
(PID.TID 0000.0001) %MON surfExpan_theta_mean         =   8.1800931768692E-27
(PID.TID 0000.0001) %MON surfExpan_salt_mean          =   1.2270400666456E-26
(PID.TID 0000.0001) // =======================================================
(PID.TID 0000.0001) // End MONITOR dynamic field statistics
(PID.TID 0000.0001) // =======================================================
 cg2d: Sum(rhs),rhsMax =  -1.10727308519209E-02  3.67371709922757E-10
 cg2d: Sum(rhs),rhsMax =  -1.11133854711771E-02  3.66027810235279E-10
 cg2d: Sum(rhs),rhsMax =  -1.11545436792715E-02  3.64677242315311E-10
 cg2d: Sum(rhs),rhsMax =  -1.11956268054265E-02  3.63339040867098E-10
 cg2d: Sum(rhs),rhsMax =  -1.12388830903968E-02  3.61940625793487E-10
 cg2d: Sum(rhs),rhsMax =  -1.12843445542143E-02  3.60482474757353E-10
 cg2d: Sum(rhs),rhsMax =  -1.13314732704057E-02  3.58983198362659E-10
 cg2d: Sum(rhs),rhsMax =  -1.13774284891008E-02  3.57533214977639E-10
 cg2d: Sum(rhs),rhsMax =  -1.14256383463651E-02  3.56024628795800E-10
 cg2d: Sum(rhs),rhsMax =  -1.14761393449171E-02  3.54457940320593E-10
 cg2d: Sum(rhs),rhsMax =  -1.15289702600840E-02  3.52833660303016E-10
 cg2d: Sum(rhs),rhsMax =  -1.15804983157747E-02  3.51263713196710E-10
 cg2d: Sum(rhs),rhsMax =  -1.16339206296724E-02  3.49650735087603E-10
 cg2d: Sum(rhs),rhsMax =  -1.16897324780822E-02  3.47981356287840E-10
 cg2d: Sum(rhs),rhsMax =  -1.17479776436725E-02  3.46256108674922E-10
 cg2d: Sum(rhs),rhsMax =  -1.18058719911133E-02  3.44558121999195E-10
(PID.TID 0000.0001)      cg2d_init_res =   3.67096975985480E-01
(PID.TID 0000.0001)      cg2d_iters(min,last) =      -1     553
(PID.TID 0000.0001)      cg2d_last_res =   9.70742392533182E-08
(PID.TID 0000.0001) // =======================================================
(PID.TID 0000.0001) // Begin MONITOR dynamic field statistics
(PID.TID 0000.0001) // =======================================================
(PID.TID 0000.0001) %MON time_tsnumber                =                  2800
(PID.TID 0000.0001) %MON time_secondsf                =   1.5120000000000E+07
(PID.TID 0000.0001) %MON dynstat_eta_max              =   6.3726770942567E-09
(PID.TID 0000.0001) %MON dynstat_eta_min              =  -3.5630753772587E-09
(PID.TID 0000.0001) %MON dynstat_eta_mean             =   3.9201967916901E-13
(PID.TID 0000.0001) %MON dynstat_eta_sd               =   1.8936421019796E-09
(PID.TID 0000.0001) %MON dynstat_eta_del2             =   1.8657765064277E-14
(PID.TID 0000.0001) %MON dynstat_uvel_max             =   2.6162145604534E-09
(PID.TID 0000.0001) %MON dynstat_uvel_min             =  -2.1763510129397E-09
(PID.TID 0000.0001) %MON dynstat_uvel_mean            =  -1.5628777072536E-13
(PID.TID 0000.0001) %MON dynstat_uvel_sd              =   8.5003926098378E-10
(PID.TID 0000.0001) %MON dynstat_uvel_del2            =   5.9861914100889E-14
(PID.TID 0000.0001) %MON dynstat_vvel_max             =   3.9458620222602E-09
(PID.TID 0000.0001) %MON dynstat_vvel_min             =  -4.0897131327911E-09
(PID.TID 0000.0001) %MON dynstat_vvel_mean            =   8.3711010918330E-15
(PID.TID 0000.0001) %MON dynstat_vvel_sd              =   1.5939159955688E-09
(PID.TID 0000.0001) %MON dynstat_vvel_del2            =   5.6184124083499E-14
(PID.TID 0000.0001) %MON dynstat_wvel_max             =   1.0939340016614E-14
(PID.TID 0000.0001) %MON dynstat_wvel_min             =  -9.7693292624990E-15
(PID.TID 0000.0001) %MON dynstat_wvel_mean            =   5.1821395315152E-29
(PID.TID 0000.0001) %MON dynstat_wvel_sd              =   4.7588686606298E-15
(PID.TID 0000.0001) %MON dynstat_wvel_del2            =   3.2058614935324E-20
(PID.TID 0000.0001) %MON dynstat_theta_max            =   2.0000000000000E+01
(PID.TID 0000.0001) %MON dynstat_theta_min            =   2.0000000000000E+01
(PID.TID 0000.0001) %MON dynstat_theta_mean           =   2.0000000000000E+01
(PID.TID 0000.0001) %MON dynstat_theta_sd             =   0.0000000000000E+00
(PID.TID 0000.0001) %MON dynstat_theta_del2           =   0.0000000000000E+00
(PID.TID 0000.0001) %MON dynstat_salt_max             =   3.0000000000000E+01
(PID.TID 0000.0001) %MON dynstat_salt_min             =   3.0000000000000E+01
(PID.TID 0000.0001) %MON dynstat_salt_mean            =   3.0000000000000E+01
(PID.TID 0000.0001) %MON dynstat_salt_sd              =   0.0000000000000E+00
(PID.TID 0000.0001) %MON dynstat_salt_del2            =   0.0000000000000E+00
(PID.TID 0000.0001) %MON trAdv_CFL_u_max              =   2.8288906088765E-09
(PID.TID 0000.0001) %MON trAdv_CFL_v_max              =   4.3879372867623E-09
(PID.TID 0000.0001) %MON trAdv_CFL_w_max              =   1.1885796087752E-14
(PID.TID 0000.0001) %MON advcfl_uvel_max              =   2.8255117252897E-09
(PID.TID 0000.0001) %MON advcfl_vvel_max              =   4.4168901834144E-09
(PID.TID 0000.0001) %MON advcfl_wvel_max              =   2.3628974435885E-14
(PID.TID 0000.0001) %MON advcfl_W_hf_max              =   0.0000000000000E+00
(PID.TID 0000.0001) %MON pe_b_mean                    =   3.5177488333520E-21
(PID.TID 0000.0001) %MON ke_max                       =   9.5418918096318E-18
(PID.TID 0000.0001) %MON ke_mean                      =   1.6249350971683E-18
(PID.TID 0000.0001) %MON ke_vol                       =   7.5645000000000E+15
(PID.TID 0000.0001) %MON vort_r_min                   =  -1.1169908518221E-13
(PID.TID 0000.0001) %MON vort_r_max                   =   1.3121147342736E-13
(PID.TID 0000.0001) %MON vort_a_mean                  =   8.2300000000001E-05
(PID.TID 0000.0001) %MON vort_a_sd                    =   7.1297555115514E-06
(PID.TID 0000.0001) %MON vort_p_mean                  =   8.3303658536586E-05
(PID.TID 0000.0001) %MON vort_p_sd                    =   1.7411470229570E-05
(PID.TID 0000.0001) %MON surfExpan_theta_mean         =   9.8528816306167E-28
(PID.TID 0000.0001) %MON surfExpan_salt_mean          =   1.4862542075299E-27
(PID.TID 0000.0001) // =======================================================
(PID.TID 0000.0001) // End MONITOR dynamic field statistics
(PID.TID 0000.0001) // =======================================================
 cg2d: Sum(rhs),rhsMax =  -1.18648062423575E-02  3.42846655620582E-10
 cg2d: Sum(rhs),rhsMax =  -1.19262419292294E-02  3.41080553252472E-10
 cg2d: Sum(rhs),rhsMax =  -1.19902283159901E-02  3.39260366451593E-10
 cg2d: Sum(rhs),rhsMax =  -1.20547482189762E-02  3.37444568244789E-10
 cg2d: Sum(rhs),rhsMax =  -1.21195380371585E-02  3.35640628097331E-10
 cg2d: Sum(rhs),rhsMax =  -1.21869560344220E-02  3.33783874787404E-10
 cg2d: Sum(rhs),rhsMax =  -1.22570574730265E-02  3.31874878130036E-10
 cg2d: Sum(rhs),rhsMax =  -1.23285053938207E-02  3.29951553079256E-10
 cg2d: Sum(rhs),rhsMax =  -1.23995428872815E-02  3.28061250744921E-10
 cg2d: Sum(rhs),rhsMax =  -1.24733516915301E-02  3.26120011132118E-10
 cg2d: Sum(rhs),rhsMax =  -1.25499936992197E-02  3.24128420849952E-10
 cg2d: Sum(rhs),rhsMax =  -1.26287218827934E-02  3.22107789125937E-10
 cg2d: Sum(rhs),rhsMax =  -1.27064527810363E-02  3.20137319190906E-10
 cg2d: Sum(rhs),rhsMax =  -1.27871163446816E-02  3.18117835798208E-10
 cg2d: Sum(rhs),rhsMax =  -1.28707817900765E-02  3.16049940889530E-10
 cg2d: Sum(rhs),rhsMax =  -1.29572000826543E-02  3.13942042879519E-10
(PID.TID 0000.0001)      cg2d_init_res =   3.95386442643734E-01
(PID.TID 0000.0001)      cg2d_iters(min,last) =      -1     555
(PID.TID 0000.0001)      cg2d_last_res =   9.30466464586723E-08
(PID.TID 0000.0001) // =======================================================
(PID.TID 0000.0001) // Begin MONITOR dynamic field statistics
(PID.TID 0000.0001) // =======================================================
(PID.TID 0000.0001) %MON time_tsnumber                =                  2816
(PID.TID 0000.0001) %MON time_secondsf                =   1.5206400000000E+07
(PID.TID 0000.0001) %MON dynstat_eta_max              =   6.3884683746407E-09
(PID.TID 0000.0001) %MON dynstat_eta_min              =  -3.8218259826186E-09
(PID.TID 0000.0001) %MON dynstat_eta_mean             =   3.9201975278008E-13
(PID.TID 0000.0001) %MON dynstat_eta_sd               =   1.8885524554756E-09
(PID.TID 0000.0001) %MON dynstat_eta_del2             =   1.8143147754043E-14
(PID.TID 0000.0001) %MON dynstat_uvel_max             =   2.5416079938963E-09
(PID.TID 0000.0001) %MON dynstat_uvel_min             =  -2.1308611864541E-09
(PID.TID 0000.0001) %MON dynstat_uvel_mean            =  -1.1978812370795E-13
(PID.TID 0000.0001) %MON dynstat_uvel_sd              =   8.3259370756873E-10
(PID.TID 0000.0001) %MON dynstat_uvel_del2            =   5.7487792746521E-14
(PID.TID 0000.0001) %MON dynstat_vvel_max             =   3.8486885014631E-09
(PID.TID 0000.0001) %MON dynstat_vvel_min             =  -4.4898920151540E-09
(PID.TID 0000.0001) %MON dynstat_vvel_mean            =   7.5459390565259E-15
(PID.TID 0000.0001) %MON dynstat_vvel_sd              =   1.5895819436135E-09
(PID.TID 0000.0001) %MON dynstat_vvel_del2            =   5.3367355224314E-14
(PID.TID 0000.0001) %MON dynstat_wvel_max             =   9.8545401572281E-15
(PID.TID 0000.0001) %MON dynstat_wvel_min             =  -1.0360222822969E-14
(PID.TID 0000.0001) %MON dynstat_wvel_mean            =  -7.4207976546963E-28
(PID.TID 0000.0001) %MON dynstat_wvel_sd              =   4.6826535495084E-15
(PID.TID 0000.0001) %MON dynstat_wvel_del2            =   3.1681352343533E-20
(PID.TID 0000.0001) %MON dynstat_theta_max            =   2.0000000000000E+01
(PID.TID 0000.0001) %MON dynstat_theta_min            =   2.0000000000000E+01
(PID.TID 0000.0001) %MON dynstat_theta_mean           =   2.0000000000000E+01
(PID.TID 0000.0001) %MON dynstat_theta_sd             =   0.0000000000000E+00
(PID.TID 0000.0001) %MON dynstat_theta_del2           =   0.0000000000000E+00
(PID.TID 0000.0001) %MON dynstat_salt_max             =   3.0000000000000E+01
(PID.TID 0000.0001) %MON dynstat_salt_min             =   3.0000000000000E+01
(PID.TID 0000.0001) %MON dynstat_salt_mean            =   3.0000000000000E+01
(PID.TID 0000.0001) %MON dynstat_salt_sd              =   0.0000000000000E+00
(PID.TID 0000.0001) %MON dynstat_salt_del2            =   0.0000000000000E+00
(PID.TID 0000.0001) %MON trAdv_CFL_u_max              =   2.7516530856068E-09
(PID.TID 0000.0001) %MON trAdv_CFL_v_max              =   4.8238361483514E-09
(PID.TID 0000.0001) %MON trAdv_CFL_w_max              =   1.0718335472570E-14
(PID.TID 0000.0001) %MON advcfl_uvel_max              =   2.7449366334080E-09
(PID.TID 0000.0001) %MON advcfl_vvel_max              =   4.8490833763663E-09
(PID.TID 0000.0001) %MON advcfl_wvel_max              =   2.2378081297614E-14
(PID.TID 0000.0001) %MON advcfl_W_hf_max              =   0.0000000000000E+00
(PID.TID 0000.0001) %MON pe_b_mean                    =   3.4988645506780E-21
(PID.TID 0000.0001) %MON ke_max                       =   1.0746090175961E-17
(PID.TID 0000.0001) %MON ke_mean                      =   1.6034468448762E-18
(PID.TID 0000.0001) %MON ke_vol                       =   7.5645000000000E+15
(PID.TID 0000.0001) %MON vort_r_min                   =  -1.1695308962406E-13
(PID.TID 0000.0001) %MON vort_r_max                   =   1.2179127271487E-13
(PID.TID 0000.0001) %MON vort_a_mean                  =   8.2300000000000E-05
(PID.TID 0000.0001) %MON vort_a_sd                    =   7.1297555115552E-06
(PID.TID 0000.0001) %MON vort_p_mean                  =   8.3303658536586E-05
(PID.TID 0000.0001) %MON vort_p_sd                    =   1.7411470229598E-05
(PID.TID 0000.0001) %MON surfExpan_theta_mean         =  -1.4892985768564E-26
(PID.TID 0000.0001) %MON surfExpan_salt_mean          =  -2.2303124932619E-26
(PID.TID 0000.0001) // =======================================================
(PID.TID 0000.0001) // End MONITOR dynamic field statistics
(PID.TID 0000.0001) // =======================================================
 cg2d: Sum(rhs),rhsMax =  -1.30421298739703E-02  3.11897668775052E-10
 cg2d: Sum(rhs),rhsMax =  -1.31301740059143E-02  3.09806247806371E-10
 cg2d: Sum(rhs),rhsMax =  -1.32214099232014E-02  3.07668395696895E-10
 cg2d: Sum(rhs),rhsMax =  -1.33159190612794E-02  3.05484735805911E-10
 cg2d: Sum(rhs),rhsMax =  -1.34086967642945E-02  3.03371023021307E-10
 cg2d: Sum(rhs),rhsMax =  -1.35047169942895E-02  3.01214019964779E-10
 cg2d: Sum(rhs),rhsMax =  -1.36041427757824E-02  2.99012602183064E-10
 cg2d: Sum(rhs),rhsMax =  -1.37070652004764E-02  2.96767404879441E-10
 cg2d: Sum(rhs),rhsMax =  -1.38085728873882E-02  2.94585851628067E-10
 cg2d: Sum(rhs),rhsMax =  -1.39132435486683E-02  2.92369656782270E-10
 cg2d: Sum(rhs),rhsMax =  -1.40215605517803E-02  2.90111094325343E-10
 cg2d: Sum(rhs),rhsMax =  -1.41336258943123E-02  2.87810809793919E-10
 cg2d: Sum(rhs),rhsMax =  -1.42445178237803E-02  2.85570238066400E-10
 cg2d: Sum(rhs),rhsMax =  -1.43586031080032E-02  2.83301261894689E-10
 cg2d: Sum(rhs),rhsMax =  -1.44766062650475E-02  2.80991990574214E-10
 cg2d: Sum(rhs),rhsMax =  -1.45986416236919E-02  2.78643078552941E-10
(PID.TID 0000.0001)      cg2d_init_res =   4.35726894901441E-01
(PID.TID 0000.0001)      cg2d_iters(min,last) =      -1     556
(PID.TID 0000.0001)      cg2d_last_res =   8.83089283536725E-08
(PID.TID 0000.0001) // =======================================================
(PID.TID 0000.0001) // Begin MONITOR dynamic field statistics
(PID.TID 0000.0001) // =======================================================
(PID.TID 0000.0001) %MON time_tsnumber                =                  2832
(PID.TID 0000.0001) %MON time_secondsf                =   1.5292800000000E+07
(PID.TID 0000.0001) %MON dynstat_eta_max              =   6.2881180804228E-09
(PID.TID 0000.0001) %MON dynstat_eta_min              =  -4.0273475411873E-09
(PID.TID 0000.0001) %MON dynstat_eta_mean             =   3.9201980814601E-13
(PID.TID 0000.0001) %MON dynstat_eta_sd               =   1.8811236904889E-09
(PID.TID 0000.0001) %MON dynstat_eta_del2             =   1.7676609906487E-14
(PID.TID 0000.0001) %MON dynstat_uvel_max             =   2.4201193819543E-09
(PID.TID 0000.0001) %MON dynstat_uvel_min             =  -2.1268967817757E-09
(PID.TID 0000.0001) %MON dynstat_uvel_mean            =  -7.7437775201600E-14
(PID.TID 0000.0001) %MON dynstat_uvel_sd              =   8.1443277867600E-10
(PID.TID 0000.0001) %MON dynstat_uvel_del2            =   5.5706257929032E-14
(PID.TID 0000.0001) %MON dynstat_vvel_max             =   3.8478667896341E-09
(PID.TID 0000.0001) %MON dynstat_vvel_min             =  -4.8236704838754E-09
(PID.TID 0000.0001) %MON dynstat_vvel_mean            =   6.0668303887084E-15
(PID.TID 0000.0001) %MON dynstat_vvel_sd              =   1.5860908831911E-09
(PID.TID 0000.0001) %MON dynstat_vvel_del2            =   5.0950063544332E-14
(PID.TID 0000.0001) %MON dynstat_wvel_max             =   8.7084567951257E-15
(PID.TID 0000.0001) %MON dynstat_wvel_min             =  -1.1397659357981E-14
(PID.TID 0000.0001) %MON dynstat_wvel_mean            =   4.4704663302768E-28
(PID.TID 0000.0001) %MON dynstat_wvel_sd              =   4.6198895481069E-15
(PID.TID 0000.0001) %MON dynstat_wvel_del2            =   3.1203763148789E-20
(PID.TID 0000.0001) %MON dynstat_theta_max            =   2.0000000000000E+01
(PID.TID 0000.0001) %MON dynstat_theta_min            =   2.0000000000000E+01
(PID.TID 0000.0001) %MON dynstat_theta_mean           =   2.0000000000000E+01
(PID.TID 0000.0001) %MON dynstat_theta_sd             =   0.0000000000000E+00
(PID.TID 0000.0001) %MON dynstat_theta_del2           =   0.0000000000000E+00
(PID.TID 0000.0001) %MON dynstat_salt_max             =   3.0000000000000E+01
(PID.TID 0000.0001) %MON dynstat_salt_min             =   3.0000000000000E+01
(PID.TID 0000.0001) %MON dynstat_salt_mean            =   3.0000000000000E+01
(PID.TID 0000.0001) %MON dynstat_salt_sd              =   0.0000000000000E+00
(PID.TID 0000.0001) %MON dynstat_salt_del2            =   0.0000000000000E+00
(PID.TID 0000.0001) %MON trAdv_CFL_u_max              =   2.6230726287634E-09
(PID.TID 0000.0001) %MON trAdv_CFL_v_max              =   5.1888811755388E-09
(PID.TID 0000.0001) %MON trAdv_CFL_w_max              =   9.4832506215781E-15
(PID.TID 0000.0001) %MON advcfl_uvel_max              =   2.6137289325106E-09
(PID.TID 0000.0001) %MON advcfl_vvel_max              =   5.2095641225854E-09
(PID.TID 0000.0001) %MON advcfl_wvel_max              =   2.4618944213239E-14
(PID.TID 0000.0001) %MON advcfl_W_hf_max              =   0.0000000000000E+00
(PID.TID 0000.0001) %MON pe_b_mean                    =   3.4713925892390E-21
(PID.TID 0000.0001) %MON ke_max                       =   1.2413832706540E-17
(PID.TID 0000.0001) %MON ke_mean                      =   1.5830311716575E-18
(PID.TID 0000.0001) %MON ke_vol                       =   7.5645000000000E+15
(PID.TID 0000.0001) %MON vort_r_min                   =  -1.2292648846445E-13
(PID.TID 0000.0001) %MON vort_r_max                   =   1.1016532317116E-13
(PID.TID 0000.0001) %MON vort_a_mean                  =   8.2300000000000E-05
(PID.TID 0000.0001) %MON vort_a_sd                    =   7.1297555115536E-06
(PID.TID 0000.0001) %MON vort_p_mean                  =   8.3303658536586E-05
(PID.TID 0000.0001) %MON vort_p_sd                    =   1.7411470229617E-05
(PID.TID 0000.0001) %MON surfExpan_theta_mean         =   8.8042291996997E-27
(PID.TID 0000.0001) %MON surfExpan_salt_mean          =   1.3268465147752E-26
(PID.TID 0000.0001) // =======================================================
(PID.TID 0000.0001) // End MONITOR dynamic field statistics
(PID.TID 0000.0001) // =======================================================
 cg2d: Sum(rhs),rhsMax =  -1.47196837242304E-02  2.76351758268207E-10
 cg2d: Sum(rhs),rhsMax =  -1.48440508752642E-02  2.74036416635650E-10
 cg2d: Sum(rhs),rhsMax =  -1.49726425710549E-02  2.71682872416372E-10
 cg2d: Sum(rhs),rhsMax =  -1.51055871888768E-02  2.69291787455553E-10
 cg2d: Sum(rhs),rhsMax =  -1.52376783333428E-02  2.66957374785598E-10
 cg2d: Sum(rhs),rhsMax =  -1.53733134999590E-02  2.64602074144677E-10
 cg2d: Sum(rhs),rhsMax =  -1.55135202608123E-02  2.62210678289063E-10
 cg2d: Sum(rhs),rhsMax =  -1.56584430657748E-02  2.59783854939647E-10
 cg2d: Sum(rhs),rhsMax =  -1.58026412827572E-02  2.57413343767768E-10
 cg2d: Sum(rhs),rhsMax =  -1.59506686790182E-02  2.55024466226476E-10
 cg2d: Sum(rhs),rhsMax =  -1.60339122578610E-02  2.53700452569301E-10
 cg2d: Sum(rhs),rhsMax =  -1.60213263437116E-02  2.53899754507619E-10
 cg2d: Sum(rhs),rhsMax =  -1.60080194959265E-02  2.54110813331674E-10
 cg2d: Sum(rhs),rhsMax =  -1.59946500128427E-02  2.54323219448071E-10
 cg2d: Sum(rhs),rhsMax =  -1.59838567367970E-02  2.54494956014934E-10
 cg2d: Sum(rhs),rhsMax =  -1.59756356548398E-02  2.54625921398899E-10
(PID.TID 0000.0001)      cg2d_init_res =   4.65316321525254E-01
(PID.TID 0000.0001)      cg2d_iters(min,last) =      -1     556
(PID.TID 0000.0001)      cg2d_last_res =   9.22321654744184E-08
(PID.TID 0000.0001) // =======================================================
(PID.TID 0000.0001) // Begin MONITOR dynamic field statistics
(PID.TID 0000.0001) // =======================================================
(PID.TID 0000.0001) %MON time_tsnumber                =                  2848
(PID.TID 0000.0001) %MON time_secondsf                =   1.5379200000000E+07
(PID.TID 0000.0001) %MON dynstat_eta_max              =   6.0872126553561E-09
(PID.TID 0000.0001) %MON dynstat_eta_min              =  -4.1629263853973E-09
(PID.TID 0000.0001) %MON dynstat_eta_mean             =   3.9201985620363E-13
(PID.TID 0000.0001) %MON dynstat_eta_sd               =   1.8696073941773E-09
(PID.TID 0000.0001) %MON dynstat_eta_del2             =   1.7269383665623E-14
(PID.TID 0000.0001) %MON dynstat_uvel_max             =   2.4323618677845E-09
(PID.TID 0000.0001) %MON dynstat_uvel_min             =  -2.1110912275390E-09
(PID.TID 0000.0001) %MON dynstat_uvel_mean            =  -3.1786495735326E-14
(PID.TID 0000.0001) %MON dynstat_uvel_sd              =   7.9832933282347E-10
(PID.TID 0000.0001) %MON dynstat_uvel_del2            =   5.4460694452284E-14
(PID.TID 0000.0001) %MON dynstat_vvel_max             =   3.8948062202232E-09
(PID.TID 0000.0001) %MON dynstat_vvel_min             =  -5.0830638363733E-09
(PID.TID 0000.0001) %MON dynstat_vvel_mean            =   3.9069099601276E-15
(PID.TID 0000.0001) %MON dynstat_vvel_sd              =   1.5819057274582E-09
(PID.TID 0000.0001) %MON dynstat_vvel_del2            =   4.8816170313173E-14
(PID.TID 0000.0001) %MON dynstat_wvel_max             =   7.5146171379936E-15
(PID.TID 0000.0001) %MON dynstat_wvel_min             =  -1.2267078198236E-14
(PID.TID 0000.0001) %MON dynstat_wvel_mean            =   1.4287414710308E-28
(PID.TID 0000.0001) %MON dynstat_wvel_sd              =   4.5749967093033E-15
(PID.TID 0000.0001) %MON dynstat_wvel_del2            =   3.0649003113538E-20
(PID.TID 0000.0001) %MON dynstat_theta_max            =   2.0000000000000E+01
(PID.TID 0000.0001) %MON dynstat_theta_min            =   2.0000000000000E+01
(PID.TID 0000.0001) %MON dynstat_theta_mean           =   2.0000000000000E+01
(PID.TID 0000.0001) %MON dynstat_theta_sd             =   0.0000000000000E+00
(PID.TID 0000.0001) %MON dynstat_theta_del2           =   0.0000000000000E+00
(PID.TID 0000.0001) %MON dynstat_salt_max             =   3.0000000000000E+01
(PID.TID 0000.0001) %MON dynstat_salt_min             =   3.0000000000000E+01
(PID.TID 0000.0001) %MON dynstat_salt_mean            =   3.0000000000000E+01
(PID.TID 0000.0001) %MON dynstat_salt_sd              =   0.0000000000000E+00
(PID.TID 0000.0001) %MON dynstat_salt_del2            =   0.0000000000000E+00
(PID.TID 0000.0001) %MON trAdv_CFL_u_max              =   2.6218888628972E-09
(PID.TID 0000.0001) %MON trAdv_CFL_v_max              =   5.4742548705317E-09
(PID.TID 0000.0001) %MON trAdv_CFL_w_max              =   8.1986098636078E-15
(PID.TID 0000.0001) %MON advcfl_uvel_max              =   2.6269508172072E-09
(PID.TID 0000.0001) %MON advcfl_vvel_max              =   5.4897089432832E-09
(PID.TID 0000.0001) %MON advcfl_wvel_max              =   2.6496888908190E-14
(PID.TID 0000.0001) %MON advcfl_W_hf_max              =   0.0000000000000E+00
(PID.TID 0000.0001) %MON pe_b_mean                    =   3.4290187547634E-21
(PID.TID 0000.0001) %MON ke_max                       =   1.3817063098348E-17
(PID.TID 0000.0001) %MON ke_mean                      =   1.5634961108396E-18
(PID.TID 0000.0001) %MON ke_vol                       =   7.5645000000000E+15
(PID.TID 0000.0001) %MON vort_r_min                   =  -1.2660570642864E-13
(PID.TID 0000.0001) %MON vort_r_max                   =   9.7006276039085E-14
(PID.TID 0000.0001) %MON vort_a_mean                  =   8.2300000000000E-05
(PID.TID 0000.0001) %MON vort_a_sd                    =   7.1297555115614E-06
(PID.TID 0000.0001) %MON vort_p_mean                  =   8.3303658536585E-05
(PID.TID 0000.0001) %MON vort_p_sd                    =   1.7411470229636E-05
(PID.TID 0000.0001) %MON surfExpan_theta_mean         =   2.7201486961245E-27
(PID.TID 0000.0001) %MON surfExpan_salt_mean          =   4.1334200053318E-27
(PID.TID 0000.0001) // =======================================================
(PID.TID 0000.0001) // End MONITOR dynamic field statistics
(PID.TID 0000.0001) // =======================================================
 cg2d: Sum(rhs),rhsMax =  -1.59699846861020E-02  2.54716022426087E-10
 cg2d: Sum(rhs),rhsMax =  -1.59634244191903E-02  2.54820701403301E-10
 cg2d: Sum(rhs),rhsMax =  -1.59571030637346E-02  2.54921649621616E-10
 cg2d: Sum(rhs),rhsMax =  -1.59533749425936E-02  2.54981223708652E-10
 cg2d: Sum(rhs),rhsMax =  -1.59522409561836E-02  2.54999351473576E-10
 cg2d: Sum(rhs),rhsMax =  -1.59537039333419E-02  2.54975969337635E-10
 cg2d: Sum(rhs),rhsMax =  -1.59535311428550E-02  2.54978732799813E-10
 cg2d: Sum(rhs),rhsMax =  -1.59544508801636E-02  2.54964035898007E-10
 cg2d: Sum(rhs),rhsMax =  -1.59579969189522E-02  2.54907382189163E-10
 cg2d: Sum(rhs),rhsMax =  -1.59641754017025E-02  2.54808729483787E-10
 cg2d: Sum(rhs),rhsMax =  -1.59729945275113E-02  2.54668044580472E-10
 cg2d: Sum(rhs),rhsMax =  -1.59789436862210E-02  2.54573230369166E-10
 cg2d: Sum(rhs),rhsMax =  -1.59873625821570E-02  2.54439174886736E-10
 cg2d: Sum(rhs),rhsMax =  -1.59984586748022E-02  2.54262704770761E-10
 cg2d: Sum(rhs),rhsMax =  -1.60122438161388E-02  2.54043809028568E-10
 cg2d: Sum(rhs),rhsMax =  -1.60271104673019E-02  2.53808161591767E-10
(PID.TID 0000.0001)      cg2d_init_res =   4.55113046781968E-01
(PID.TID 0000.0001)      cg2d_iters(min,last) =      -1     553
(PID.TID 0000.0001)      cg2d_last_res =   9.42681996157520E-08
(PID.TID 0000.0001) // =======================================================
(PID.TID 0000.0001) // Begin MONITOR dynamic field statistics
(PID.TID 0000.0001) // =======================================================
(PID.TID 0000.0001) %MON time_tsnumber                =                  2864
(PID.TID 0000.0001) %MON time_secondsf                =   1.5465600000000E+07
(PID.TID 0000.0001) %MON dynstat_eta_max              =   5.8054319985474E-09
(PID.TID 0000.0001) %MON dynstat_eta_min              =  -4.2163659719928E-09
(PID.TID 0000.0001) %MON dynstat_eta_mean             =   3.9201990437814E-13
(PID.TID 0000.0001) %MON dynstat_eta_sd               =   1.8533651596818E-09
(PID.TID 0000.0001) %MON dynstat_eta_del2             =   1.6925310649244E-14
(PID.TID 0000.0001) %MON dynstat_uvel_max             =   2.4833029896623E-09
(PID.TID 0000.0001) %MON dynstat_uvel_min             =  -2.0868161871708E-09
(PID.TID 0000.0001) %MON dynstat_uvel_mean            =   1.4474008458705E-14
(PID.TID 0000.0001) %MON dynstat_uvel_sd              =   7.8642282381893E-10
(PID.TID 0000.0001) %MON dynstat_uvel_del2            =   5.3574079516264E-14
(PID.TID 0000.0001) %MON dynstat_vvel_max             =   4.0819786976205E-09
(PID.TID 0000.0001) %MON dynstat_vvel_min             =  -5.2594727187850E-09
(PID.TID 0000.0001) %MON dynstat_vvel_mean            =   1.0813541990832E-15
(PID.TID 0000.0001) %MON dynstat_vvel_sd              =   1.5759081117245E-09
(PID.TID 0000.0001) %MON dynstat_vvel_del2            =   4.6891933201728E-14
(PID.TID 0000.0001) %MON dynstat_wvel_max             =   6.2897187019795E-15
(PID.TID 0000.0001) %MON dynstat_wvel_min             =  -1.2903417789811E-14
(PID.TID 0000.0001) %MON dynstat_wvel_mean            =   1.2588173432734E-28
(PID.TID 0000.0001) %MON dynstat_wvel_sd              =   4.5490557762878E-15
(PID.TID 0000.0001) %MON dynstat_wvel_del2            =   3.0035860133082E-20
(PID.TID 0000.0001) %MON dynstat_theta_max            =   2.0000000000000E+01
(PID.TID 0000.0001) %MON dynstat_theta_min            =   2.0000000000000E+01
(PID.TID 0000.0001) %MON dynstat_theta_mean           =   2.0000000000000E+01
(PID.TID 0000.0001) %MON dynstat_theta_sd             =   0.0000000000000E+00
(PID.TID 0000.0001) %MON dynstat_theta_del2           =   0.0000000000000E+00
(PID.TID 0000.0001) %MON dynstat_salt_max             =   3.0000000000000E+01
(PID.TID 0000.0001) %MON dynstat_salt_min             =   3.0000000000000E+01
(PID.TID 0000.0001) %MON dynstat_salt_mean            =   3.0000000000000E+01
(PID.TID 0000.0001) %MON dynstat_salt_sd              =   0.0000000000000E+00
(PID.TID 0000.0001) %MON dynstat_salt_del2            =   0.0000000000000E+00
(PID.TID 0000.0001) %MON trAdv_CFL_u_max              =   2.6800872555870E-09
(PID.TID 0000.0001) %MON trAdv_CFL_v_max              =   5.6708538665331E-09
(PID.TID 0000.0001) %MON trAdv_CFL_w_max              =   6.8755209597704E-15
(PID.TID 0000.0001) %MON advcfl_uvel_max              =   2.6819672288353E-09
(PID.TID 0000.0001) %MON advcfl_vvel_max              =   5.6802305362878E-09
(PID.TID 0000.0001) %MON advcfl_wvel_max              =   2.7871382425992E-14
(PID.TID 0000.0001) %MON advcfl_W_hf_max              =   0.0000000000000E+00
(PID.TID 0000.0001) %MON pe_b_mean                    =   3.3696982799947E-21
(PID.TID 0000.0001) %MON ke_max                       =   1.4851063599925E-17
(PID.TID 0000.0001) %MON ke_mean                      =   1.5446688465144E-18
(PID.TID 0000.0001) %MON ke_vol                       =   7.5645000000000E+15
(PID.TID 0000.0001) %MON vort_r_min                   =  -1.2766799581281E-13
(PID.TID 0000.0001) %MON vort_r_max                   =   9.1821483757371E-14
(PID.TID 0000.0001) %MON vort_a_mean                  =   8.2300000000000E-05
(PID.TID 0000.0001) %MON vort_a_sd                    =   7.1297555115676E-06
(PID.TID 0000.0001) %MON vort_p_mean                  =   8.3303658536585E-05
(PID.TID 0000.0001) %MON vort_p_sd                    =   1.7411470229650E-05
(PID.TID 0000.0001) %MON surfExpan_theta_mean         =   2.4855392135299E-27
(PID.TID 0000.0001) %MON surfExpan_salt_mean          =   3.7224592596941E-27
(PID.TID 0000.0001) // =======================================================
(PID.TID 0000.0001) // End MONITOR dynamic field statistics
(PID.TID 0000.0001) // =======================================================
 cg2d: Sum(rhs),rhsMax =  -1.60406277288922E-02  2.53594282309289E-10
 cg2d: Sum(rhs),rhsMax =  -1.60568772523179E-02  2.53337647626166E-10
 cg2d: Sum(rhs),rhsMax =  -1.60758748509168E-02  2.53038269008574E-10
 cg2d: Sum(rhs),rhsMax =  -1.60976386302403E-02  2.52696166965579E-10
 cg2d: Sum(rhs),rhsMax =  -1.61182688372485E-02  2.52372736716651E-10
 cg2d: Sum(rhs),rhsMax =  -1.61399449931271E-02  2.52033799331836E-10
 cg2d: Sum(rhs),rhsMax =  -1.61644401552466E-02  2.51651876315603E-10
 cg2d: Sum(rhs),rhsMax =  -1.61917769814130E-02  2.51227010965554E-10
 cg2d: Sum(rhs),rhsMax =  -1.62209596231886E-02  2.50775038259113E-10
 cg2d: Sum(rhs),rhsMax =  -1.62483774496967E-02  2.50351877781223E-10
 cg2d: Sum(rhs),rhsMax =  -1.62786985993671E-02  2.49885567595232E-10
 cg2d: Sum(rhs),rhsMax =  -1.63119507581723E-02  2.49376173965663E-10
 cg2d: Sum(rhs),rhsMax =  -1.63481642383836E-02  2.48823772751312E-10
 cg2d: Sum(rhs),rhsMax =  -1.63831071820514E-02  2.48293067409422E-10
 cg2d: Sum(rhs),rhsMax =  -1.64196318459929E-02  2.47740753496213E-10
 cg2d: Sum(rhs),rhsMax =  -1.64591926219878E-02  2.47145294077232E-10
(PID.TID 0000.0001)      cg2d_init_res =   4.55922510844173E-01
(PID.TID 0000.0001)      cg2d_iters(min,last) =      -1     555
(PID.TID 0000.0001)      cg2d_last_res =   9.06706445993194E-08
(PID.TID 0000.0001) // =======================================================
(PID.TID 0000.0001) // Begin MONITOR dynamic field statistics
(PID.TID 0000.0001) // =======================================================
(PID.TID 0000.0001) %MON time_tsnumber                =                  2880
(PID.TID 0000.0001) %MON time_secondsf                =   1.5552000000000E+07
(PID.TID 0000.0001) %MON dynstat_eta_max              =   5.4632833342317E-09
(PID.TID 0000.0001) %MON dynstat_eta_min              =  -4.1798309319410E-09
(PID.TID 0000.0001) %MON dynstat_eta_mean             =   3.9201995738957E-13
(PID.TID 0000.0001) %MON dynstat_eta_sd               =   1.8329293722245E-09
(PID.TID 0000.0001) %MON dynstat_eta_del2             =   1.6641286970101E-14
(PID.TID 0000.0001) %MON dynstat_uvel_max             =   2.4920409667016E-09
(PID.TID 0000.0001) %MON dynstat_uvel_min             =  -2.0547235898184E-09
(PID.TID 0000.0001) %MON dynstat_uvel_mean            =   5.8661768327688E-14
(PID.TID 0000.0001) %MON dynstat_uvel_sd              =   7.7963879000391E-10
(PID.TID 0000.0001) %MON dynstat_uvel_del2            =   5.2812181151379E-14
(PID.TID 0000.0001) %MON dynstat_vvel_max             =   4.2331073455935E-09
(PID.TID 0000.0001) %MON dynstat_vvel_min             =  -5.3501690644795E-09
(PID.TID 0000.0001) %MON dynstat_vvel_mean            =  -2.3519928941305E-15
(PID.TID 0000.0001) %MON dynstat_vvel_sd              =   1.5676210976965E-09
(PID.TID 0000.0001) %MON dynstat_vvel_del2            =   4.5150492071776E-14
(PID.TID 0000.0001) %MON dynstat_wvel_max             =   7.0117166062200E-15
(PID.TID 0000.0001) %MON dynstat_wvel_min             =  -1.3282505780809E-14
(PID.TID 0000.0001) %MON dynstat_wvel_mean            =  -4.5083805842769E-28
(PID.TID 0000.0001) %MON dynstat_wvel_sd              =   4.5396467700621E-15
(PID.TID 0000.0001) %MON dynstat_wvel_del2            =   2.9401818336429E-20
(PID.TID 0000.0001) %MON dynstat_theta_max            =   2.0000000000000E+01
(PID.TID 0000.0001) %MON dynstat_theta_min            =   2.0000000000000E+01
(PID.TID 0000.0001) %MON dynstat_theta_mean           =   2.0000000000000E+01
(PID.TID 0000.0001) %MON dynstat_theta_sd             =   0.0000000000000E+00
(PID.TID 0000.0001) %MON dynstat_theta_del2           =   0.0000000000000E+00
(PID.TID 0000.0001) %MON dynstat_salt_max             =   3.0000000000000E+01
(PID.TID 0000.0001) %MON dynstat_salt_min             =   3.0000000000000E+01
(PID.TID 0000.0001) %MON dynstat_salt_mean            =   3.0000000000000E+01
(PID.TID 0000.0001) %MON dynstat_salt_sd              =   0.0000000000000E+00
(PID.TID 0000.0001) %MON dynstat_salt_del2            =   0.0000000000000E+00
(PID.TID 0000.0001) %MON trAdv_CFL_u_max              =   2.6922045128112E-09
(PID.TID 0000.0001) %MON trAdv_CFL_v_max              =   5.7748781695347E-09
(PID.TID 0000.0001) %MON trAdv_CFL_w_max              =   7.5039054865833E-15
(PID.TID 0000.0001) %MON advcfl_uvel_max              =   2.6914042440377E-09
(PID.TID 0000.0001) %MON advcfl_vvel_max              =   5.7781825896378E-09
(PID.TID 0000.0001) %MON advcfl_wvel_max              =   2.8690212486548E-14
(PID.TID 0000.0001) %MON advcfl_W_hf_max              =   0.0000000000000E+00
(PID.TID 0000.0001) %MON pe_b_mean                    =   3.2957972627352E-21
(PID.TID 0000.0001) %MON ke_max                       =   1.5443084670717E-17
(PID.TID 0000.0001) %MON ke_mean                      =   1.5264060473695E-18
(PID.TID 0000.0001) %MON ke_vol                       =   7.5645000000000E+15
(PID.TID 0000.0001) %MON vort_r_min                   =  -1.2587503215700E-13
(PID.TID 0000.0001) %MON vort_r_max                   =   9.3477645627165E-14
(PID.TID 0000.0001) %MON vort_a_mean                  =   8.2300000000001E-05
(PID.TID 0000.0001) %MON vort_a_sd                    =   7.1297555115483E-06
(PID.TID 0000.0001) %MON vort_p_mean                  =   8.3303658536586E-05
(PID.TID 0000.0001) %MON vort_p_sd                    =   1.7411470229652E-05
(PID.TID 0000.0001) %MON surfExpan_theta_mean         =  -9.0370873973059E-27
(PID.TID 0000.0001) %MON surfExpan_salt_mean          =  -1.3530974257439E-26
(PID.TID 0000.0001) // =======================================================
(PID.TID 0000.0001) // End MONITOR dynamic field statistics
(PID.TID 0000.0001) // =======================================================
 cg2d: Sum(rhs),rhsMax =  -1.65018256090052E-02  2.46506787991356E-10
 cg2d: Sum(rhs),rhsMax =  -1.65453039165566E-02  2.45859010652152E-10
 cg2d: Sum(rhs),rhsMax =  -1.65884655814645E-02  2.45219309853143E-10
 cg2d: Sum(rhs),rhsMax =  -1.66347863475277E-02  2.44536480610630E-10
 cg2d: Sum(rhs),rhsMax =  -1.66843089672169E-02  2.43810645451363E-10
 cg2d: Sum(rhs),rhsMax =  -1.67363999665233E-02  2.43051801712321E-10
 cg2d: Sum(rhs),rhsMax =  -1.67866963565599E-02  2.42323570083031E-10
 cg2d: Sum(rhs),rhsMax =  -1.68402954708506E-02  2.41552306818265E-10
 cg2d: Sum(rhs),rhsMax =  -1.68972475026556E-02  2.40738158322054E-10
 cg2d: Sum(rhs),rhsMax =  -1.69576062133860E-02  2.39881279383298E-10
 cg2d: Sum(rhs),rhsMax =  -1.70161252899581E-02  2.39056320189645E-10
 cg2d: Sum(rhs),rhsMax =  -1.70775986142944E-02  2.38195803403923E-10
 cg2d: Sum(rhs),rhsMax =  -1.71426008095171E-02  2.37292601760357E-10
 cg2d: Sum(rhs),rhsMax =  -1.72111945359621E-02  2.36346894126410E-10
 cg2d: Sum(rhs),rhsMax =  -1.72789000951283E-02  2.35420794903473E-10
 cg2d: Sum(rhs),rhsMax =  -1.71820049750324E-02  2.36748413568166E-10
(PID.TID 0000.0001)      cg2d_init_res =   4.65214365047305E-01
(PID.TID 0000.0001)      cg2d_iters(min,last) =      -1     556
(PID.TID 0000.0001)      cg2d_last_res =   9.32766356960405E-08
(PID.TID 0000.0001) // =======================================================
(PID.TID 0000.0001) // Begin MONITOR dynamic field statistics
(PID.TID 0000.0001) // =======================================================
(PID.TID 0000.0001) %MON time_tsnumber                =                  2896
(PID.TID 0000.0001) %MON time_secondsf                =   1.5638400000000E+07
(PID.TID 0000.0001) %MON dynstat_eta_max              =   5.0771701284830E-09
(PID.TID 0000.0001) %MON dynstat_eta_min              =  -4.0530175433517E-09
(PID.TID 0000.0001) %MON dynstat_eta_mean             =   3.9201999743701E-13
(PID.TID 0000.0001) %MON dynstat_eta_sd               =   1.8098626503343E-09
(PID.TID 0000.0001) %MON dynstat_eta_del2             =   1.6408740525902E-14
(PID.TID 0000.0001) %MON dynstat_uvel_max             =   2.4522847909416E-09
(PID.TID 0000.0001) %MON dynstat_uvel_min             =  -2.0163803963505E-09
(PID.TID 0000.0001) %MON dynstat_uvel_mean            =   9.8253820705879E-14
(PID.TID 0000.0001) %MON dynstat_uvel_sd              =   7.7747257140200E-10
(PID.TID 0000.0001) %MON dynstat_uvel_del2            =   5.1957264482791E-14
(PID.TID 0000.0001) %MON dynstat_vvel_max             =   4.3396950406329E-09
(PID.TID 0000.0001) %MON dynstat_vvel_min             =  -5.3536017227845E-09
(PID.TID 0000.0001) %MON dynstat_vvel_mean            =  -6.2944456873859E-15
(PID.TID 0000.0001) %MON dynstat_vvel_sd              =   1.5572566247814E-09
(PID.TID 0000.0001) %MON dynstat_vvel_del2            =   4.3601046542888E-14
(PID.TID 0000.0001) %MON dynstat_wvel_max             =   7.9802773578219E-15
(PID.TID 0000.0001) %MON dynstat_wvel_min             =  -1.3391889622794E-14
(PID.TID 0000.0001) %MON dynstat_wvel_mean            =  -1.3446328517731E-28
(PID.TID 0000.0001) %MON dynstat_wvel_sd              =   4.5415276531728E-15
(PID.TID 0000.0001) %MON dynstat_wvel_del2            =   2.8774571217359E-20
(PID.TID 0000.0001) %MON dynstat_theta_max            =   2.0000000000000E+01
(PID.TID 0000.0001) %MON dynstat_theta_min            =   2.0000000000000E+01
(PID.TID 0000.0001) %MON dynstat_theta_mean           =   2.0000000000000E+01
(PID.TID 0000.0001) %MON dynstat_theta_sd             =   0.0000000000000E+00
(PID.TID 0000.0001) %MON dynstat_theta_del2           =   0.0000000000000E+00
(PID.TID 0000.0001) %MON dynstat_salt_max             =   3.0000000000000E+01
(PID.TID 0000.0001) %MON dynstat_salt_min             =   3.0000000000000E+01
(PID.TID 0000.0001) %MON dynstat_salt_mean            =   3.0000000000000E+01
(PID.TID 0000.0001) %MON dynstat_salt_sd              =   0.0000000000000E+00
(PID.TID 0000.0001) %MON dynstat_salt_del2            =   0.0000000000000E+00
(PID.TID 0000.0001) %MON trAdv_CFL_u_max              =   2.6523674519656E-09
(PID.TID 0000.0001) %MON trAdv_CFL_v_max              =   5.7851244215188E-09
(PID.TID 0000.0001) %MON trAdv_CFL_w_max              =   8.5566322613362E-15
(PID.TID 0000.0001) %MON advcfl_uvel_max              =   2.6484675742169E-09
(PID.TID 0000.0001) %MON advcfl_vvel_max              =   5.7818898606073E-09
(PID.TID 0000.0001) %MON advcfl_wvel_max              =   2.8926481585234E-14
(PID.TID 0000.0001) %MON advcfl_W_hf_max              =   0.0000000000000E+00
(PID.TID 0000.0001) %MON pe_b_mean                    =   3.2133665103864E-21
(PID.TID 0000.0001) %MON ke_max                       =   1.5591683914044E-17
(PID.TID 0000.0001) %MON ke_mean                      =   1.5085983578828E-18
(PID.TID 0000.0001) %MON ke_vol                       =   7.5645000000000E+15
(PID.TID 0000.0001) %MON vort_r_min                   =  -1.2114717524930E-13
(PID.TID 0000.0001) %MON vort_r_max                   =   9.0758935455397E-14
(PID.TID 0000.0001) %MON vort_a_mean                  =   8.2300000000001E-05
(PID.TID 0000.0001) %MON vort_a_sd                    =   7.1297555115421E-06
(PID.TID 0000.0001) %MON vort_p_mean                  =   8.3303658536586E-05
(PID.TID 0000.0001) %MON vort_p_sd                    =   1.7411470229659E-05
(PID.TID 0000.0001) %MON surfExpan_theta_mean         =  -2.7556110973930E-27
(PID.TID 0000.0001) %MON surfExpan_salt_mean          =  -4.0626844401114E-27
(PID.TID 0000.0001) // =======================================================
(PID.TID 0000.0001) // End MONITOR dynamic field statistics
(PID.TID 0000.0001) // =======================================================
 cg2d: Sum(rhs),rhsMax =  -1.70596256111382E-02  2.38446759353826E-10
 cg2d: Sum(rhs),rhsMax =  -1.69417464615307E-02  2.40105851892946E-10
 cg2d: Sum(rhs),rhsMax =  -1.68237074170038E-02  2.41790491824067E-10
 cg2d: Sum(rhs),rhsMax =  -1.67111695044563E-02  2.43418781314259E-10
 cg2d: Sum(rhs),rhsMax =  -1.66039628182060E-02  2.44990463079637E-10
 cg2d: Sum(rhs),rhsMax =  -1.65019278796406E-02  2.46505292732124E-10
 cg2d: Sum(rhs),rhsMax =  -1.64049150409016E-02  2.47963038816426E-10
 cg2d: Sum(rhs),rhsMax =  -1.63088624384140E-02  2.49423442256089E-10
 cg2d: Sum(rhs),rhsMax =  -1.62149995273551E-02  2.50867268196003E-10
 cg2d: Sum(rhs),rhsMax =  -1.61258839670699E-02  2.52253623373899E-10
 cg2d: Sum(rhs),rhsMax =  -1.60413897897122E-02  2.53582310542350E-10
 cg2d: Sum(rhs),rhsMax =  -1.59613988969259E-02  2.54853145481289E-10
 cg2d: Sum(rhs),rhsMax =  -1.58854540611187E-02  2.56071543438933E-10
 cg2d: Sum(rhs),rhsMax =  -1.58078523105527E-02  2.57328616501042E-10
 cg2d: Sum(rhs),rhsMax =  -1.57345427481098E-02  2.58527550329950E-10
 cg2d: Sum(rhs),rhsMax =  -1.56654257027434E-02  2.59668195043103E-10
(PID.TID 0000.0001)      cg2d_init_res =   4.15926029765654E-01
(PID.TID 0000.0001)      cg2d_iters(min,last) =      -1     555
(PID.TID 0000.0001)      cg2d_last_res =   9.33286294961869E-08
(PID.TID 0000.0001) // =======================================================
(PID.TID 0000.0001) // Begin MONITOR dynamic field statistics
(PID.TID 0000.0001) // =======================================================
(PID.TID 0000.0001) %MON time_tsnumber                =                  2912
(PID.TID 0000.0001) %MON time_secondsf                =   1.5724800000000E+07
(PID.TID 0000.0001) %MON dynstat_eta_max              =   4.6565181555732E-09
(PID.TID 0000.0001) %MON dynstat_eta_min              =  -4.5152246784554E-09
(PID.TID 0000.0001) %MON dynstat_eta_mean             =   3.9202003613342E-13
(PID.TID 0000.0001) %MON dynstat_eta_sd               =   1.7864400281938E-09
(PID.TID 0000.0001) %MON dynstat_eta_del2             =   1.6215740347363E-14
(PID.TID 0000.0001) %MON dynstat_uvel_max             =   2.3615620050686E-09
(PID.TID 0000.0001) %MON dynstat_uvel_min             =  -1.9729619485810E-09
(PID.TID 0000.0001) %MON dynstat_uvel_mean            =   1.3102488419804E-13
(PID.TID 0000.0001) %MON dynstat_uvel_sd              =   7.7823807616904E-10
(PID.TID 0000.0001) %MON dynstat_uvel_del2            =   5.0867700360585E-14
(PID.TID 0000.0001) %MON dynstat_vvel_max             =   4.3917595626458E-09
(PID.TID 0000.0001) %MON dynstat_vvel_min             =  -5.2783264847577E-09
(PID.TID 0000.0001) %MON dynstat_vvel_mean            =  -1.0610673815857E-14
(PID.TID 0000.0001) %MON dynstat_vvel_sd              =   1.5455930373723E-09
(PID.TID 0000.0001) %MON dynstat_vvel_del2            =   4.2270594657968E-14
(PID.TID 0000.0001) %MON dynstat_wvel_max             =   8.8497750377892E-15
(PID.TID 0000.0001) %MON dynstat_wvel_min             =  -1.3234847878740E-14
(PID.TID 0000.0001) %MON dynstat_wvel_mean            =  -1.0579365166826E-28
(PID.TID 0000.0001) %MON dynstat_wvel_sd              =   4.5479270553540E-15
(PID.TID 0000.0001) %MON dynstat_wvel_del2            =   2.8201068411118E-20
(PID.TID 0000.0001) %MON dynstat_theta_max            =   2.0000000000000E+01
(PID.TID 0000.0001) %MON dynstat_theta_min            =   2.0000000000000E+01
(PID.TID 0000.0001) %MON dynstat_theta_mean           =   2.0000000000000E+01
(PID.TID 0000.0001) %MON dynstat_theta_sd             =   0.0000000000000E+00
(PID.TID 0000.0001) %MON dynstat_theta_del2           =   0.0000000000000E+00
(PID.TID 0000.0001) %MON dynstat_salt_max             =   3.0000000000000E+01
(PID.TID 0000.0001) %MON dynstat_salt_min             =   3.0000000000000E+01
(PID.TID 0000.0001) %MON dynstat_salt_mean            =   3.0000000000000E+01
(PID.TID 0000.0001) %MON dynstat_salt_sd              =   0.0000000000000E+00
(PID.TID 0000.0001) %MON dynstat_salt_del2            =   0.0000000000000E+00
(PID.TID 0000.0001) %MON trAdv_CFL_u_max              =   2.5583080760091E-09
(PID.TID 0000.0001) %MON trAdv_CFL_v_max              =   5.7081600585024E-09
(PID.TID 0000.0001) %MON trAdv_CFL_w_max              =   9.5024030080548E-15
(PID.TID 0000.0001) %MON advcfl_uvel_max              =   2.5504869654741E-09
(PID.TID 0000.0001) %MON advcfl_vvel_max              =   5.7005926035384E-09
(PID.TID 0000.0001) %MON advcfl_wvel_max              =   2.8587271418079E-14
(PID.TID 0000.0001) %MON advcfl_W_hf_max              =   0.0000000000000E+00
(PID.TID 0000.0001) %MON pe_b_mean                    =   3.1307321335804E-21
(PID.TID 0000.0001) %MON ke_max                       =   1.5276560863209E-17
(PID.TID 0000.0001) %MON ke_mean                      =   1.4911697715955E-18
(PID.TID 0000.0001) %MON ke_vol                       =   7.5645000000000E+15
(PID.TID 0000.0001) %MON vort_r_min                   =  -1.1346327709730E-13
(PID.TID 0000.0001) %MON vort_r_max                   =   8.3999761183413E-14
(PID.TID 0000.0001) %MON vort_a_mean                  =   8.2299999999999E-05
(PID.TID 0000.0001) %MON vort_a_sd                    =   7.1297555115731E-06
(PID.TID 0000.0001) %MON vort_p_mean                  =   8.3303658536585E-05
(PID.TID 0000.0001) %MON vort_p_sd                    =   1.7411470229681E-05
(PID.TID 0000.0001) %MON surfExpan_theta_mean         =  -2.0967953767512E-27
(PID.TID 0000.0001) %MON surfExpan_salt_mean          =  -3.0989682113862E-27
(PID.TID 0000.0001) // =======================================================
(PID.TID 0000.0001) // End MONITOR dynamic field statistics
(PID.TID 0000.0001) // =======================================================
 cg2d: Sum(rhs),rhsMax =  -1.56004080071913E-02  2.60750413849750E-10
 cg2d: Sum(rhs),rhsMax =  -1.55394025981663E-02  2.61774083087573E-10
 cg2d: Sum(rhs),rhsMax =  -1.54789769135895E-02  2.62795979208523E-10
 cg2d: Sum(rhs),rhsMax =  -1.54197060100917E-02  2.63806126759443E-10
 cg2d: Sum(rhs),rhsMax =  -1.53642938470022E-02  2.64757559688936E-10
 cg2d: Sum(rhs),rhsMax =  -1.53126673399980E-02  2.65650188752394E-10
 cg2d: Sum(rhs),rhsMax =  -1.52647586412085E-02  2.66483937841727E-10
 cg2d: Sum(rhs),rhsMax =  -1.52200510713550E-02  2.67266712853269E-10
 cg2d: Sum(rhs),rhsMax =  -1.51734562153009E-02  2.68087441122607E-10
 cg2d: Sum(rhs),rhsMax =  -1.51304623757187E-02  2.68849224882014E-10
 cg2d: Sum(rhs),rhsMax =  -1.50910131427560E-02  2.69552022484274E-10
 cg2d: Sum(rhs),rhsMax =  -1.50550566140568E-02  2.70195805208531E-10
 cg2d: Sum(rhs),rhsMax =  -1.50225452377568E-02  2.70780557456169E-10
 cg2d: Sum(rhs),rhsMax =  -1.49897079963252E-02  2.71373745629513E-10
 cg2d: Sum(rhs),rhsMax =  -1.49581558469209E-02  2.71946173428943E-10
 cg2d: Sum(rhs),rhsMax =  -1.49299671307923E-02  2.72459627313436E-10
(PID.TID 0000.0001)      cg2d_init_res =   3.90272793229210E-01
(PID.TID 0000.0001)      cg2d_iters(min,last) =      -1     553
(PID.TID 0000.0001)      cg2d_last_res =   9.81917833908026E-08
(PID.TID 0000.0001) // =======================================================
(PID.TID 0000.0001) // Begin MONITOR dynamic field statistics
(PID.TID 0000.0001) // =======================================================
(PID.TID 0000.0001) %MON time_tsnumber                =                  2928
(PID.TID 0000.0001) %MON time_secondsf                =   1.5811200000000E+07
(PID.TID 0000.0001) %MON dynstat_eta_max              =   4.2072437466272E-09
(PID.TID 0000.0001) %MON dynstat_eta_min              =  -4.9484724521141E-09
(PID.TID 0000.0001) %MON dynstat_eta_mean             =   3.9202008193650E-13
(PID.TID 0000.0001) %MON dynstat_eta_sd               =   1.7651960279745E-09
(PID.TID 0000.0001) %MON dynstat_eta_del2             =   1.6049249448475E-14
(PID.TID 0000.0001) %MON dynstat_uvel_max             =   2.2190689887943E-09
(PID.TID 0000.0001) %MON dynstat_uvel_min             =  -1.9252169550781E-09
(PID.TID 0000.0001) %MON dynstat_uvel_mean            =   1.5516793483919E-13
(PID.TID 0000.0001) %MON dynstat_uvel_sd              =   7.7967228222501E-10
(PID.TID 0000.0001) %MON dynstat_uvel_del2            =   4.9513111303828E-14
(PID.TID 0000.0001) %MON dynstat_vvel_max             =   4.3846779132444E-09
(PID.TID 0000.0001) %MON dynstat_vvel_min             =  -5.1261938918745E-09
(PID.TID 0000.0001) %MON dynstat_vvel_mean            =  -1.5135042414111E-14
(PID.TID 0000.0001) %MON dynstat_vvel_sd              =   1.5337179082736E-09
(PID.TID 0000.0001) %MON dynstat_vvel_del2            =   4.1187288944721E-14
(PID.TID 0000.0001) %MON dynstat_wvel_max             =   9.5821224577186E-15
(PID.TID 0000.0001) %MON dynstat_wvel_min             =  -1.2829685791527E-14
(PID.TID 0000.0001) %MON dynstat_wvel_mean            =   1.0865581210889E-28
(PID.TID 0000.0001) %MON dynstat_wvel_sd              =   4.5520586121422E-15
(PID.TID 0000.0001) %MON dynstat_wvel_del2            =   2.7713076425421E-20
(PID.TID 0000.0001) %MON dynstat_theta_max            =   2.0000000000000E+01
(PID.TID 0000.0001) %MON dynstat_theta_min            =   2.0000000000000E+01
(PID.TID 0000.0001) %MON dynstat_theta_mean           =   2.0000000000000E+01
(PID.TID 0000.0001) %MON dynstat_theta_sd             =   0.0000000000000E+00
(PID.TID 0000.0001) %MON dynstat_theta_del2           =   0.0000000000000E+00
(PID.TID 0000.0001) %MON dynstat_salt_max             =   3.0000000000000E+01
(PID.TID 0000.0001) %MON dynstat_salt_min             =   3.0000000000000E+01
(PID.TID 0000.0001) %MON dynstat_salt_mean            =   3.0000000000000E+01
(PID.TID 0000.0001) %MON dynstat_salt_sd              =   0.0000000000000E+00
(PID.TID 0000.0001) %MON dynstat_salt_del2            =   0.0000000000000E+00
(PID.TID 0000.0001) %MON trAdv_CFL_u_max              =   2.4079662683067E-09
(PID.TID 0000.0001) %MON trAdv_CFL_v_max              =   5.5484051258873E-09
(PID.TID 0000.0001) %MON trAdv_CFL_w_max              =   1.0303253282351E-14
(PID.TID 0000.0001) %MON advcfl_uvel_max              =   2.3965945078978E-09
(PID.TID 0000.0001) %MON advcfl_vvel_max              =   5.5362894032245E-09
(PID.TID 0000.0001) %MON advcfl_wvel_max              =   2.7712121309698E-14
(PID.TID 0000.0001) %MON advcfl_W_hf_max              =   0.0000000000000E+00
(PID.TID 0000.0001) %MON pe_b_mean                    =   3.0567147446106E-21
(PID.TID 0000.0001) %MON ke_max                       =   1.4573343516331E-17
(PID.TID 0000.0001) %MON ke_mean                      =   1.4740731320388E-18
(PID.TID 0000.0001) %MON ke_vol                       =   7.5645000000000E+15
(PID.TID 0000.0001) %MON vort_r_min                   =  -1.0296048092235E-13
(PID.TID 0000.0001) %MON vort_r_max                   =   7.4486644407183E-14
(PID.TID 0000.0001) %MON vort_a_mean                  =   8.2300000000000E-05
(PID.TID 0000.0001) %MON vort_a_sd                    =   7.1297555115619E-06
(PID.TID 0000.0001) %MON vort_p_mean                  =   8.3303658536585E-05
(PID.TID 0000.0001) %MON vort_p_sd                    =   1.7411470229690E-05
(PID.TID 0000.0001) %MON surfExpan_theta_mean         =   2.0696672556419E-27
(PID.TID 0000.0001) %MON surfExpan_salt_mean          =   3.1248774874125E-27
(PID.TID 0000.0001) // =======================================================
(PID.TID 0000.0001) // End MONITOR dynamic field statistics
(PID.TID 0000.0001) // =======================================================
 cg2d: Sum(rhs),rhsMax =  -1.49051035929343E-02  2.72914125979026E-10
 cg2d: Sum(rhs),rhsMax =  -1.48835308363622E-02  2.73309700774763E-10
 cg2d: Sum(rhs),rhsMax =  -1.48638603285791E-02  2.73671395460641E-10
 cg2d: Sum(rhs),rhsMax =  -1.48430286961329E-02  2.74055485576681E-10
 cg2d: Sum(rhs),rhsMax =  -1.48254300661040E-02  2.74380807714716E-10
 cg2d: Sum(rhs),rhsMax =  -1.48110381490016E-02  2.74647426916536E-10
 cg2d: Sum(rhs),rhsMax =  -1.47998301909626E-02  2.74855421145064E-10
 cg2d: Sum(rhs),rhsMax =  -1.47917869136214E-02  2.75004881175127E-10
 cg2d: Sum(rhs),rhsMax =  -1.47819304296063E-02  2.75188255434548E-10
 cg2d: Sum(rhs),rhsMax =  -1.47744615503279E-02  2.75327373448429E-10
 cg2d: Sum(rhs),rhsMax =  -1.47701240706739E-02  2.75408231093410E-10
 cg2d: Sum(rhs),rhsMax =  -1.47689058208977E-02  2.75430952165854E-10
 cg2d: Sum(rhs),rhsMax =  -1.47707979531058E-02  2.75395673089313E-10
 cg2d: Sum(rhs),rhsMax =  -1.47727392454326E-02  2.75359486994220E-10
 cg2d: Sum(rhs),rhsMax =  -1.47751247412441E-02  2.75315033095188E-10
 cg2d: Sum(rhs),rhsMax =  -1.47806055026061E-02  2.75212948399295E-10
(PID.TID 0000.0001)      cg2d_init_res =   3.82053831486493E-01
(PID.TID 0000.0001)      cg2d_iters(min,last) =      -1     553
(PID.TID 0000.0001)      cg2d_last_res =   8.68904620156520E-08
(PID.TID 0000.0001) // =======================================================
(PID.TID 0000.0001) // Begin MONITOR dynamic field statistics
(PID.TID 0000.0001) // =======================================================
(PID.TID 0000.0001) %MON time_tsnumber                =                  2944
(PID.TID 0000.0001) %MON time_secondsf                =   1.5897600000000E+07
(PID.TID 0000.0001) %MON dynstat_eta_max              =   3.7352794564698E-09
(PID.TID 0000.0001) %MON dynstat_eta_min              =  -5.2747858745593E-09
(PID.TID 0000.0001) %MON dynstat_eta_mean             =   3.9202015574479E-13
(PID.TID 0000.0001) %MON dynstat_eta_sd               =   1.7484079057884E-09
(PID.TID 0000.0001) %MON dynstat_eta_del2             =   1.5897108843402E-14
(PID.TID 0000.0001) %MON dynstat_uvel_max             =   2.0257665236016E-09
(PID.TID 0000.0001) %MON dynstat_uvel_min             =  -1.8965250633701E-09
(PID.TID 0000.0001) %MON dynstat_uvel_mean            =   1.6939019346687E-13
(PID.TID 0000.0001) %MON dynstat_uvel_sd              =   7.7965121808920E-10
(PID.TID 0000.0001) %MON dynstat_uvel_del2            =   4.7984636203702E-14
(PID.TID 0000.0001) %MON dynstat_vvel_max             =   4.3142720448294E-09
(PID.TID 0000.0001) %MON dynstat_vvel_min             =  -4.9124521632000E-09
(PID.TID 0000.0001) %MON dynstat_vvel_mean            =  -1.9679728296115E-14
(PID.TID 0000.0001) %MON dynstat_vvel_sd              =   1.5226971182787E-09
(PID.TID 0000.0001) %MON dynstat_vvel_del2            =   4.0372957095946E-14
(PID.TID 0000.0001) %MON dynstat_wvel_max             =   1.0154549162089E-14
(PID.TID 0000.0001) %MON dynstat_wvel_min             =  -1.2196734401893E-14
(PID.TID 0000.0001) %MON dynstat_wvel_mean            =   2.0838591496254E-28
(PID.TID 0000.0001) %MON dynstat_wvel_sd              =   4.5484778123932E-15
(PID.TID 0000.0001) %MON dynstat_wvel_del2            =   2.7311978085159E-20
(PID.TID 0000.0001) %MON dynstat_theta_max            =   2.0000000000000E+01
(PID.TID 0000.0001) %MON dynstat_theta_min            =   2.0000000000000E+01
(PID.TID 0000.0001) %MON dynstat_theta_mean           =   2.0000000000000E+01
(PID.TID 0000.0001) %MON dynstat_theta_sd             =   0.0000000000000E+00
(PID.TID 0000.0001) %MON dynstat_theta_del2           =   0.0000000000000E+00
(PID.TID 0000.0001) %MON dynstat_salt_max             =   3.0000000000000E+01
(PID.TID 0000.0001) %MON dynstat_salt_min             =   3.0000000000000E+01
(PID.TID 0000.0001) %MON dynstat_salt_mean            =   3.0000000000000E+01
(PID.TID 0000.0001) %MON dynstat_salt_sd              =   0.0000000000000E+00
(PID.TID 0000.0001) %MON dynstat_salt_del2            =   0.0000000000000E+00
(PID.TID 0000.0001) %MON trAdv_CFL_u_max              =   2.2022154290262E-09
(PID.TID 0000.0001) %MON trAdv_CFL_v_max              =   5.3214100795050E-09
(PID.TID 0000.0001) %MON trAdv_CFL_w_max              =   1.0933886266784E-14
(PID.TID 0000.0001) %MON advcfl_uvel_max              =   2.1878278454897E-09
(PID.TID 0000.0001) %MON advcfl_vvel_max              =   5.3054483362560E-09
(PID.TID 0000.0001) %MON advcfl_wvel_max              =   2.6344946308088E-14
(PID.TID 0000.0001) %MON advcfl_W_hf_max              =   0.0000000000000E+00
(PID.TID 0000.0001) %MON pe_b_mean                    =   2.9988486818878E-21
(PID.TID 0000.0001) %MON ke_max                       =   1.3576944105096E-17
(PID.TID 0000.0001) %MON ke_mean                      =   1.4572831878370E-18
(PID.TID 0000.0001) %MON ke_vol                       =   7.5645000000000E+15
(PID.TID 0000.0001) %MON vort_r_min                   =  -9.9527271050969E-14
(PID.TID 0000.0001) %MON vort_r_max                   =   8.3822866600787E-14
(PID.TID 0000.0001) %MON vort_a_mean                  =   8.2300000000000E-05
(PID.TID 0000.0001) %MON vort_a_sd                    =   7.1297555115625E-06
(PID.TID 0000.0001) %MON vort_p_mean                  =   8.3303658536585E-05
(PID.TID 0000.0001) %MON vort_p_sd                    =   1.7411470229706E-05
(PID.TID 0000.0001) %MON surfExpan_theta_mean         =   4.1334188855844E-27
(PID.TID 0000.0001) %MON surfExpan_salt_mean          =   6.1961459466238E-27
(PID.TID 0000.0001) // =======================================================
(PID.TID 0000.0001) // End MONITOR dynamic field statistics
(PID.TID 0000.0001) // =======================================================
 cg2d: Sum(rhs),rhsMax =  -1.47891793413351E-02  2.75053401636566E-10
 cg2d: Sum(rhs),rhsMax =  -1.48008472687554E-02  2.74836574049442E-10
 cg2d: Sum(rhs),rhsMax =  -1.48142476399414E-02  2.74587973219436E-10
 cg2d: Sum(rhs),rhsMax =  -1.48263808452835E-02  2.74363270119569E-10
 cg2d: Sum(rhs),rhsMax =  -1.48416100652058E-02  2.74081748856685E-10
 cg2d: Sum(rhs),rhsMax =  -1.48599428002875E-02  2.73743622049748E-10
 cg2d: Sum(rhs),rhsMax =  -1.48813897281311E-02  2.73349114673139E-10
 cg2d: Sum(rhs),rhsMax =  -1.49059647205321E-02  2.72898463801385E-10
 cg2d: Sum(rhs),rhsMax =  -1.49280245889835E-02  2.72495202101320E-10
 cg2d: Sum(rhs),rhsMax =  -1.49530915914151E-02  2.72038418896167E-10
 cg2d: Sum(rhs),rhsMax =  -1.49813089416690E-02  2.71526064068474E-10
 cg2d: Sum(rhs),rhsMax =  -1.50126980113836E-02  2.70958404855860E-10
 cg2d: Sum(rhs),rhsMax =  -1.50499382973013E-02  2.70335720824806E-10
 cg2d: Sum(rhs),rhsMax =  -1.50833158375003E-02  2.69737423118202E-10
 cg2d: Sum(rhs),rhsMax =  -1.51184688449728E-02  2.69110202006316E-10
 cg2d: Sum(rhs),rhsMax =  -1.51568560243415E-02  2.68428614267677E-10
(PID.TID 0000.0001)      cg2d_init_res =   3.88997774313831E-01
(PID.TID 0000.0001)      cg2d_iters(min,last) =      -1     550
(PID.TID 0000.0001)      cg2d_last_res =   9.01038151325392E-08
(PID.TID 0000.0001) // =======================================================
(PID.TID 0000.0001) // Begin MONITOR dynamic field statistics
(PID.TID 0000.0001) // =======================================================
(PID.TID 0000.0001) %MON time_tsnumber                =                  2960
(PID.TID 0000.0001) %MON time_secondsf                =   1.5984000000000E+07
(PID.TID 0000.0001) %MON dynstat_eta_max              =   3.4703921438014E-09
(PID.TID 0000.0001) %MON dynstat_eta_min              =  -5.4859736807447E-09
(PID.TID 0000.0001) %MON dynstat_eta_mean             =   3.9208949742284E-13
(PID.TID 0000.0001) %MON dynstat_eta_sd               =   1.7376195412803E-09
(PID.TID 0000.0001) %MON dynstat_eta_del2             =   1.5749515631868E-14
(PID.TID 0000.0001) %MON dynstat_uvel_max             =   2.1112255809072E-09
(PID.TID 0000.0001) %MON dynstat_uvel_min             =  -1.9004776791038E-09
(PID.TID 0000.0001) %MON dynstat_uvel_mean            =   1.7297950358925E-13
(PID.TID 0000.0001) %MON dynstat_uvel_sd              =   7.7679416509245E-10
(PID.TID 0000.0001) %MON dynstat_uvel_del2            =   4.6480672892670E-14
(PID.TID 0000.0001) %MON dynstat_vvel_max             =   4.1791324323557E-09
(PID.TID 0000.0001) %MON dynstat_vvel_min             =  -4.6555568718821E-09
(PID.TID 0000.0001) %MON dynstat_vvel_mean            =  -2.4044205068474E-14
(PID.TID 0000.0001) %MON dynstat_vvel_sd              =   1.5132512579718E-09
(PID.TID 0000.0001) %MON dynstat_vvel_del2            =   3.9847987993300E-14
(PID.TID 0000.0001) %MON dynstat_wvel_max             =   1.0559527792164E-14
(PID.TID 0000.0001) %MON dynstat_wvel_min             =  -1.1364500979161E-14
(PID.TID 0000.0001) %MON dynstat_wvel_mean            =  -1.1189425785238E-28
(PID.TID 0000.0001) %MON dynstat_wvel_sd              =   4.5340315414764E-15
(PID.TID 0000.0001) %MON dynstat_wvel_del2            =   2.7019228833850E-20
(PID.TID 0000.0001) %MON dynstat_theta_max            =   2.0000000000000E+01
(PID.TID 0000.0001) %MON dynstat_theta_min            =   2.0000000000000E+01
(PID.TID 0000.0001) %MON dynstat_theta_mean           =   2.0000000000000E+01
(PID.TID 0000.0001) %MON dynstat_theta_sd             =   0.0000000000000E+00
(PID.TID 0000.0001) %MON dynstat_theta_del2           =   0.0000000000000E+00
(PID.TID 0000.0001) %MON dynstat_salt_max             =   3.0000000000000E+01
(PID.TID 0000.0001) %MON dynstat_salt_min             =   3.0000000000000E+01
(PID.TID 0000.0001) %MON dynstat_salt_mean            =   3.0000000000000E+01
(PID.TID 0000.0001) %MON dynstat_salt_sd              =   0.0000000000000E+00
(PID.TID 0000.0001) %MON dynstat_salt_del2            =   0.0000000000000E+00
(PID.TID 0000.0001) %MON trAdv_CFL_u_max              =   2.2738401128028E-09
(PID.TID 0000.0001) %MON trAdv_CFL_v_max              =   5.0461850669122E-09
(PID.TID 0000.0001) %MON trAdv_CFL_w_max              =   1.1381932658772E-14
(PID.TID 0000.0001) %MON advcfl_uvel_max              =   2.2801236273797E-09
(PID.TID 0000.0001) %MON advcfl_vvel_max              =   5.0280014216327E-09
(PID.TID 0000.0001) %MON advcfl_wvel_max              =   2.4547322114987E-14
(PID.TID 0000.0001) %MON advcfl_W_hf_max              =   0.0000000000000E+00
(PID.TID 0000.0001) %MON pe_b_mean                    =   2.9619547093178E-21
(PID.TID 0000.0001) %MON ke_max                       =   1.2409393693373E-17
(PID.TID 0000.0001) %MON ke_mean                      =   1.4407885181257E-18
(PID.TID 0000.0001) %MON ke_vol                       =   7.5645000000000E+15
(PID.TID 0000.0001) %MON vort_r_min                   =  -9.9389116059647E-14
(PID.TID 0000.0001) %MON vort_r_max                   =   9.3024540002353E-14
(PID.TID 0000.0001) %MON vort_a_mean                  =   8.2300000000000E-05
(PID.TID 0000.0001) %MON vort_a_sd                    =   7.1297555115616E-06
(PID.TID 0000.0001) %MON vort_p_mean                  =   8.3303658536585E-05
(PID.TID 0000.0001) %MON vort_p_sd                    =   1.7411470229725E-05
(PID.TID 0000.0001) %MON surfExpan_theta_mean         =  -2.2629138278590E-27
(PID.TID 0000.0001) %MON surfExpan_salt_mean          =  -3.4014948549073E-27
(PID.TID 0000.0001) // =======================================================
(PID.TID 0000.0001) // End MONITOR dynamic field statistics
(PID.TID 0000.0001) // =======================================================
 cg2d: Sum(rhs),rhsMax =  -1.51985075607984E-02  2.67692968898115E-10
 cg2d: Sum(rhs),rhsMax =  -1.52434571954301E-02  2.66903586074464E-10
 cg2d: Sum(rhs),rhsMax =  -1.52883500572641E-02  2.66119834164483E-10
 cg2d: Sum(rhs),rhsMax =  -1.53339969960193E-02  2.65327624002966E-10
 cg2d: Sum(rhs),rhsMax =  -1.53829989431047E-02  2.64482418518452E-10
 cg2d: Sum(rhs),rhsMax =  -1.54353975904038E-02  2.63584566208411E-10
 cg2d: Sum(rhs),rhsMax =  -1.54912380059410E-02  2.62634426399860E-10
 cg2d: Sum(rhs),rhsMax =  -1.55480088371250E-02  2.61675453482312E-10
 cg2d: Sum(rhs),rhsMax =  -1.56047289751082E-02  2.60724304893862E-10
 cg2d: Sum(rhs),rhsMax =  -1.56649680567455E-02  2.59721690680033E-10
 cg2d: Sum(rhs),rhsMax =  -1.57287794414109E-02  2.58667997615254E-10
 cg2d: Sum(rhs),rhsMax =  -1.57962205240107E-02  2.57563622785278E-10
 cg2d: Sum(rhs),rhsMax =  -1.58654194345856E-02  2.56440223317500E-10
 cg2d: Sum(rhs),rhsMax =  -1.59339832193835E-02  2.55336759013658E-10
 cg2d: Sum(rhs),rhsMax =  -1.60062765514057E-02  2.54183510887255E-10
 cg2d: Sum(rhs),rhsMax =  -1.60823662526062E-02  2.52980901509868E-10
(PID.TID 0000.0001)      cg2d_init_res =   4.11505540044860E-01
(PID.TID 0000.0001)      cg2d_iters(min,last) =      -1     539
(PID.TID 0000.0001)      cg2d_last_res =   9.52925368339894E-08
(PID.TID 0000.0001) // =======================================================
(PID.TID 0000.0001) // Begin MONITOR dynamic field statistics
(PID.TID 0000.0001) // =======================================================
(PID.TID 0000.0001) %MON time_tsnumber                =                  2976
(PID.TID 0000.0001) %MON time_secondsf                =   1.6070400000000E+07
(PID.TID 0000.0001) %MON dynstat_eta_max              =   3.8680214000915E-09
(PID.TID 0000.0001) %MON dynstat_eta_min              =  -5.5840411769495E-09
(PID.TID 0000.0001) %MON dynstat_eta_mean             =   3.9208929033172E-13
(PID.TID 0000.0001) %MON dynstat_eta_sd               =   1.7333247144946E-09
(PID.TID 0000.0001) %MON dynstat_eta_del2             =   1.5599938375176E-14
(PID.TID 0000.0001) %MON dynstat_uvel_max             =   2.1814154603717E-09
(PID.TID 0000.0001) %MON dynstat_uvel_min             =  -1.8722527360966E-09
(PID.TID 0000.0001) %MON dynstat_uvel_mean            =   1.6583779151891E-13
(PID.TID 0000.0001) %MON dynstat_uvel_sd              =   7.7083612963955E-10
(PID.TID 0000.0001) %MON dynstat_uvel_del2            =   4.5264779314073E-14
(PID.TID 0000.0001) %MON dynstat_vvel_max             =   3.9802961481665E-09
(PID.TID 0000.0001) %MON dynstat_vvel_min             =  -4.3870284681750E-09
(PID.TID 0000.0001) %MON dynstat_vvel_mean            =  -2.8025539884981E-14
(PID.TID 0000.0001) %MON dynstat_vvel_sd              =   1.5055256968721E-09
(PID.TID 0000.0001) %MON dynstat_vvel_del2            =   3.9645401262826E-14
(PID.TID 0000.0001) %MON dynstat_wvel_max             =   1.0816092565480E-14
(PID.TID 0000.0001) %MON dynstat_wvel_min             =  -1.0364479350877E-14
(PID.TID 0000.0001) %MON dynstat_wvel_mean            =  -3.4902118350448E-28
(PID.TID 0000.0001) %MON dynstat_wvel_sd              =   4.5082929745587E-15
(PID.TID 0000.0001) %MON dynstat_wvel_del2            =   2.6839116046606E-20
(PID.TID 0000.0001) %MON dynstat_theta_max            =   2.0000000000000E+01
(PID.TID 0000.0001) %MON dynstat_theta_min            =   2.0000000000000E+01
(PID.TID 0000.0001) %MON dynstat_theta_mean           =   2.0000000000000E+01
(PID.TID 0000.0001) %MON dynstat_theta_sd             =   0.0000000000000E+00
(PID.TID 0000.0001) %MON dynstat_theta_del2           =   0.0000000000000E+00
(PID.TID 0000.0001) %MON dynstat_salt_max             =   3.0000000000000E+01
(PID.TID 0000.0001) %MON dynstat_salt_min             =   3.0000000000000E+01
(PID.TID 0000.0001) %MON dynstat_salt_mean            =   3.0000000000000E+01
(PID.TID 0000.0001) %MON dynstat_salt_sd              =   0.0000000000000E+00
(PID.TID 0000.0001) %MON dynstat_salt_del2            =   0.0000000000000E+00
(PID.TID 0000.0001) %MON trAdv_CFL_u_max              =   2.3523206208231E-09
(PID.TID 0000.0001) %MON trAdv_CFL_v_max              =   4.7560422444786E-09
(PID.TID 0000.0001) %MON trAdv_CFL_w_max              =   1.1667669573900E-14
(PID.TID 0000.0001) %MON advcfl_uvel_max              =   2.3559286972014E-09
(PID.TID 0000.0001) %MON advcfl_vvel_max              =   4.7379907456290E-09
(PID.TID 0000.0001) %MON advcfl_wvel_max              =   2.3362759941437E-14
(PID.TID 0000.0001) %MON advcfl_W_hf_max              =   0.0000000000000E+00
(PID.TID 0000.0001) %MON pe_b_mean                    =   2.9473308399391E-21
(PID.TID 0000.0001) %MON ke_max                       =   1.1160320921319E-17
(PID.TID 0000.0001) %MON ke_mean                      =   1.4245833694958E-18
(PID.TID 0000.0001) %MON ke_vol                       =   7.5645000000000E+15
(PID.TID 0000.0001) %MON vort_r_min                   =  -9.5865502429881E-14
(PID.TID 0000.0001) %MON vort_r_max                   =   1.0167156064426E-13
(PID.TID 0000.0001) %MON vort_a_mean                  =   8.2299999999999E-05
(PID.TID 0000.0001) %MON vort_a_sd                    =   7.1297555115694E-06
(PID.TID 0000.0001) %MON vort_p_mean                  =   8.3303658536585E-05
(PID.TID 0000.0001) %MON vort_p_sd                    =   1.7411470229751E-05
(PID.TID 0000.0001) %MON surfExpan_theta_mean         =  -6.9670965346552E-27
(PID.TID 0000.0001) %MON surfExpan_salt_mean          =  -1.0460662622411E-26
(PID.TID 0000.0001) // =======================================================
(PID.TID 0000.0001) // End MONITOR dynamic field statistics
(PID.TID 0000.0001) // =======================================================
 cg2d: Sum(rhs),rhsMax =  -1.61623236862846E-02  2.51729364034490E-10
 cg2d: Sum(rhs),rhsMax =  -1.62447033859784E-02  2.50452797995203E-10
 cg2d: Sum(rhs),rhsMax =  -1.63260957568745E-02  2.49204184272639E-10
 cg2d: Sum(rhs),rhsMax =  -1.64114821102629E-02  2.47907611759514E-10
 cg2d: Sum(rhs),rhsMax =  -1.65009446946785E-02  2.46563537687350E-10
 cg2d: Sum(rhs),rhsMax =  -1.65945709340261E-02  2.45172429084773E-10
 cg2d: Sum(rhs),rhsMax =  -1.66911139149217E-02  2.43754326566995E-10
 cg2d: Sum(rhs),rhsMax =  -1.67865690608348E-02  2.42368240224213E-10
 cg2d: Sum(rhs),rhsMax =  -1.68863455247086E-02  2.40936155567107E-10
 cg2d: Sum(rhs),rhsMax =  -1.69905435985721E-02  2.39458562274531E-10
 cg2d: Sum(rhs),rhsMax =  -1.70992695796209E-02  2.37935959431385E-10
 cg2d: Sum(rhs),rhsMax =  -1.72112256827136E-02  2.36388224747732E-10
 cg2d: Sum(rhs),rhsMax =  -1.73222728317385E-02  2.34872819272719E-10
 cg2d: Sum(rhs),rhsMax =  -1.74380435734911E-02  2.33313502445184E-10
 cg2d: Sum(rhs),rhsMax =  -1.75586597185028E-02  2.31710794316941E-10
 cg2d: Sum(rhs),rhsMax =  -1.76842500899364E-02  2.30065223782333E-10
(PID.TID 0000.0001)      cg2d_init_res =   4.52661367537055E-01
(PID.TID 0000.0001)      cg2d_iters(min,last) =      -1     541
(PID.TID 0000.0001)      cg2d_last_res =   9.02450312768513E-08
(PID.TID 0000.0001) // =======================================================
(PID.TID 0000.0001) // Begin MONITOR dynamic field statistics
(PID.TID 0000.0001) // =======================================================
(PID.TID 0000.0001) %MON time_tsnumber                =                  2992
(PID.TID 0000.0001) %MON time_secondsf                =   1.6156800000000E+07
(PID.TID 0000.0001) %MON dynstat_eta_max              =   4.2128200425778E-09
(PID.TID 0000.0001) %MON dynstat_eta_min              =  -5.5777116713764E-09
(PID.TID 0000.0001) %MON dynstat_eta_mean             =   3.9208923741865E-13
(PID.TID 0000.0001) %MON dynstat_eta_sd               =   1.7348990933273E-09
(PID.TID 0000.0001) %MON dynstat_eta_del2             =   1.5445532990493E-14
(PID.TID 0000.0001) %MON dynstat_uvel_max             =   2.2127083290523E-09
(PID.TID 0000.0001) %MON dynstat_uvel_min             =  -1.8952127601249E-09
(PID.TID 0000.0001) %MON dynstat_uvel_mean            =   1.4848000182489E-13
(PID.TID 0000.0001) %MON dynstat_uvel_sd              =   7.6272951574819E-10
(PID.TID 0000.0001) %MON dynstat_uvel_del2            =   4.4593565281775E-14
(PID.TID 0000.0001) %MON dynstat_vvel_max             =   4.1751100270708E-09
(PID.TID 0000.0001) %MON dynstat_vvel_min             =  -4.1114779370236E-09
(PID.TID 0000.0001) %MON dynstat_vvel_mean            =  -3.1429001165469E-14
(PID.TID 0000.0001) %MON dynstat_vvel_sd              =   1.4990207442418E-09
(PID.TID 0000.0001) %MON dynstat_vvel_del2            =   3.9824990197380E-14
(PID.TID 0000.0001) %MON dynstat_wvel_max             =   1.1038310813449E-14
(PID.TID 0000.0001) %MON dynstat_wvel_min             =  -9.2299530629614E-15
(PID.TID 0000.0001) %MON dynstat_wvel_mean            =   3.2626087823529E-28
(PID.TID 0000.0001) %MON dynstat_wvel_sd              =   4.4734729772717E-15
(PID.TID 0000.0001) %MON dynstat_wvel_del2            =   2.6754412196797E-20
(PID.TID 0000.0001) %MON dynstat_theta_max            =   2.0000000000000E+01
(PID.TID 0000.0001) %MON dynstat_theta_min            =   2.0000000000000E+01
(PID.TID 0000.0001) %MON dynstat_theta_mean           =   2.0000000000000E+01
(PID.TID 0000.0001) %MON dynstat_theta_sd             =   0.0000000000000E+00
(PID.TID 0000.0001) %MON dynstat_theta_del2           =   0.0000000000000E+00
(PID.TID 0000.0001) %MON dynstat_salt_max             =   3.0000000000000E+01
(PID.TID 0000.0001) %MON dynstat_salt_min             =   3.0000000000000E+01
(PID.TID 0000.0001) %MON dynstat_salt_mean            =   3.0000000000000E+01
(PID.TID 0000.0001) %MON dynstat_salt_sd              =   0.0000000000000E+00
(PID.TID 0000.0001) %MON dynstat_salt_del2            =   0.0000000000000E+00
(PID.TID 0000.0001) %MON trAdv_CFL_u_max              =   2.3887241134734E-09
(PID.TID 0000.0001) %MON trAdv_CFL_v_max              =   4.4876171274786E-09
(PID.TID 0000.0001) %MON trAdv_CFL_w_max              =   1.1899847793650E-14
(PID.TID 0000.0001) %MON advcfl_uvel_max              =   2.3897249953765E-09
(PID.TID 0000.0001) %MON advcfl_vvel_max              =   4.5091188292365E-09
(PID.TID 0000.0001) %MON advcfl_wvel_max              =   2.3842751357050E-14
(PID.TID 0000.0001) %MON advcfl_W_hf_max              =   0.0000000000000E+00
(PID.TID 0000.0001) %MON pe_b_mean                    =   2.9526873924245E-21
(PID.TID 0000.0001) %MON ke_max                       =   9.8478754122425E-18
(PID.TID 0000.0001) %MON ke_mean                      =   1.4086601312587E-18
(PID.TID 0000.0001) %MON ke_vol                       =   7.5645000000000E+15
(PID.TID 0000.0001) %MON vort_r_min                   =  -8.9321475210890E-14
(PID.TID 0000.0001) %MON vort_r_max                   =   1.0935999661609E-13
(PID.TID 0000.0001) %MON vort_a_mean                  =   8.2300000000001E-05
(PID.TID 0000.0001) %MON vort_a_sd                    =   7.1297555115500E-06
(PID.TID 0000.0001) %MON vort_p_mean                  =   8.3303658536586E-05
(PID.TID 0000.0001) %MON vort_p_sd                    =   1.7411470229771E-05
(PID.TID 0000.0001) %MON surfExpan_theta_mean         =   6.5266181268817E-27
(PID.TID 0000.0001) %MON surfExpan_salt_mean          =   9.7680764388747E-27
(PID.TID 0000.0001) // =======================================================
(PID.TID 0000.0001) // End MONITOR dynamic field statistics
(PID.TID 0000.0001) // =======================================================
 cg2d: Sum(rhs),rhsMax =  -1.78131872507398E-02  2.28399940834889E-10
 cg2d: Sum(rhs),rhsMax =  -1.78582917261084E-02  2.27823071451001E-10
 cg2d: Sum(rhs),rhsMax =  -1.77984394264974E-02  2.28589188637292E-10
 cg2d: Sum(rhs),rhsMax =  -1.77412008218167E-02  2.29326685632464E-10
 cg2d: Sum(rhs),rhsMax =  -1.76865430696667E-02  2.30035385001303E-10
 cg2d: Sum(rhs),rhsMax =  -1.76344351287141E-02  2.30715113468241E-10
 cg2d: Sum(rhs),rhsMax =  -1.75833479704183E-02  2.31385437191876E-10
 cg2d: Sum(rhs),rhsMax =  -1.75298706217786E-02  2.32091309189721E-10
 cg2d: Sum(rhs),rhsMax =  -1.74789498069909E-02  2.32767450565690E-10
 cg2d: Sum(rhs),rhsMax =  -1.74305560758035E-02  2.33413698019788E-10
 cg2d: Sum(rhs),rhsMax =  -1.73846616394009E-02  2.34029893747381E-10
 cg2d: Sum(rhs),rhsMax =  -1.73412404405228E-02  2.34615885634285E-10
 cg2d: Sum(rhs),rhsMax =  -1.72965189545011E-02  2.35222501431052E-10
 cg2d: Sum(rhs),rhsMax =  -1.72518578460599E-02  2.35831436818034E-10
 cg2d: Sum(rhs),rhsMax =  -1.72096782889841E-02  2.36409439131665E-10
 cg2d: Sum(rhs),rhsMax =  -1.71699558759127E-02  2.36956366824630E-10
(PID.TID 0000.0001)      cg2d_init_res =   4.40875059697504E-01
(PID.TID 0000.0001)      cg2d_iters(min,last) =      -1     550
(PID.TID 0000.0001)      cg2d_last_res =   9.53045572756190E-08
(PID.TID 0000.0001) // =======================================================
(PID.TID 0000.0001) // Begin MONITOR dynamic field statistics
(PID.TID 0000.0001) // =======================================================
(PID.TID 0000.0001) %MON time_tsnumber                =                  3008
(PID.TID 0000.0001) %MON time_secondsf                =   1.6243200000000E+07
(PID.TID 0000.0001) %MON dynstat_eta_max              =   4.4935711048443E-09
(PID.TID 0000.0001) %MON dynstat_eta_min              =  -5.4820111666993E-09
(PID.TID 0000.0001) %MON dynstat_eta_mean             =   3.9208918131822E-13
(PID.TID 0000.0001) %MON dynstat_eta_sd               =   1.7407962540511E-09
(PID.TID 0000.0001) %MON dynstat_eta_del2             =   1.5287164012227E-14
(PID.TID 0000.0001) %MON dynstat_uvel_max             =   2.2068170513461E-09
(PID.TID 0000.0001) %MON dynstat_uvel_min             =  -2.0378144397282E-09
(PID.TID 0000.0001) %MON dynstat_uvel_mean            =   1.2199902160781E-13
(PID.TID 0000.0001) %MON dynstat_uvel_sd              =   7.5446256791862E-10
(PID.TID 0000.0001) %MON dynstat_uvel_del2            =   4.4627855232524E-14
(PID.TID 0000.0001) %MON dynstat_vvel_max             =   4.4592397118823E-09
(PID.TID 0000.0001) %MON dynstat_vvel_min             =  -3.8112110418260E-09
(PID.TID 0000.0001) %MON dynstat_vvel_mean            =  -3.4078290762856E-14
(PID.TID 0000.0001) %MON dynstat_vvel_sd              =   1.4927034273800E-09
(PID.TID 0000.0001) %MON dynstat_vvel_del2            =   4.0475920059661E-14
(PID.TID 0000.0001) %MON dynstat_wvel_max             =   1.1603116849002E-14
(PID.TID 0000.0001) %MON dynstat_wvel_min             =  -7.9938721408990E-15
(PID.TID 0000.0001) %MON dynstat_wvel_mean            =  -2.0918408526702E-28
(PID.TID 0000.0001) %MON dynstat_wvel_sd              =   4.4338557985697E-15
(PID.TID 0000.0001) %MON dynstat_wvel_del2            =   2.6759775504453E-20
(PID.TID 0000.0001) %MON dynstat_theta_max            =   2.0000000000000E+01
(PID.TID 0000.0001) %MON dynstat_theta_min            =   2.0000000000000E+01
(PID.TID 0000.0001) %MON dynstat_theta_mean           =   2.0000000000000E+01
(PID.TID 0000.0001) %MON dynstat_theta_sd             =   0.0000000000000E+00
(PID.TID 0000.0001) %MON dynstat_theta_del2           =   0.0000000000000E+00
(PID.TID 0000.0001) %MON dynstat_salt_max             =   3.0000000000000E+01
(PID.TID 0000.0001) %MON dynstat_salt_min             =   3.0000000000000E+01
(PID.TID 0000.0001) %MON dynstat_salt_mean            =   3.0000000000000E+01
(PID.TID 0000.0001) %MON dynstat_salt_sd              =   0.0000000000000E+00
(PID.TID 0000.0001) %MON dynstat_salt_del2            =   0.0000000000000E+00
(PID.TID 0000.0001) %MON trAdv_CFL_u_max              =   2.3847827814145E-09
(PID.TID 0000.0001) %MON trAdv_CFL_v_max              =   4.7995341715737E-09
(PID.TID 0000.0001) %MON trAdv_CFL_w_max              =   1.2486636950415E-14
(PID.TID 0000.0001) %MON advcfl_uvel_max              =   2.3833624154538E-09
(PID.TID 0000.0001) %MON advcfl_vvel_max              =   4.8159788888329E-09
(PID.TID 0000.0001) %MON advcfl_wvel_max              =   2.5062732393843E-14
(PID.TID 0000.0001) %MON advcfl_W_hf_max              =   0.0000000000000E+00
(PID.TID 0000.0001) %MON pe_b_mean                    =   2.9727946885670E-21
(PID.TID 0000.0001) %MON ke_max                       =   1.0020302463951E-17
(PID.TID 0000.0001) %MON ke_mean                      =   1.3930029260449E-18
(PID.TID 0000.0001) %MON ke_vol                       =   7.5645000000000E+15
(PID.TID 0000.0001) %MON vort_r_min                   =  -8.0243699333300E-14
(PID.TID 0000.0001) %MON vort_r_max                   =   1.1564676540911E-13
(PID.TID 0000.0001) %MON vort_a_mean                  =   8.2300000000000E-05
(PID.TID 0000.0001) %MON vort_a_sd                    =   7.1297555115595E-06
(PID.TID 0000.0001) %MON vort_p_mean                  =   8.3303658536586E-05
(PID.TID 0000.0001) %MON vort_p_sd                    =   1.7411470229803E-05
(PID.TID 0000.0001) %MON surfExpan_theta_mean         =  -4.1578400172694E-27
(PID.TID 0000.0001) %MON surfExpan_salt_mean          =  -6.2185865250330E-27
(PID.TID 0000.0001) // =======================================================
(PID.TID 0000.0001) // End MONITOR dynamic field statistics
(PID.TID 0000.0001) // =======================================================
 cg2d: Sum(rhs),rhsMax =  -1.71326678175875E-02  2.37472084039693E-10
 cg2d: Sum(rhs),rhsMax =  -1.70974036054851E-02  2.37961879848819E-10
 cg2d: Sum(rhs),rhsMax =  -1.70589768289993E-02  2.38497907030034E-10
 cg2d: Sum(rhs),rhsMax =  -1.70229948536610E-02  2.39002024633637E-10
 cg2d: Sum(rhs),rhsMax =  -1.69894366662515E-02  2.39474108506419E-10
 cg2d: Sum(rhs),rhsMax =  -1.69582828917691E-02  2.39914040395321E-10
 cg2d: Sum(rhs),rhsMax =  -1.69295157423304E-02  2.40321708078437E-10
 cg2d: Sum(rhs),rhsMax =  -1.68996059623981E-02  2.40747039829023E-10
 cg2d: Sum(rhs),rhsMax =  -1.68698404385048E-02  2.41171817441946E-10
 cg2d: Sum(rhs),rhsMax =  -1.68424747805825E-02  2.41563671710358E-10
 cg2d: Sum(rhs),rhsMax =  -1.68174930787447E-02  2.41922503114333E-10
 cg2d: Sum(rhs),rhsMax =  -1.67948809777535E-02  2.42248218229259E-10
 cg2d: Sum(rhs),rhsMax =  -1.67732913280657E-02  2.42560024783369E-10
 cg2d: Sum(rhs),rhsMax =  -1.67497991900283E-02  2.42900221263310E-10
 cg2d: Sum(rhs),rhsMax =  -1.67286930770355E-02  2.43206679763455E-10
 cg2d: Sum(rhs),rhsMax =  -1.67099606789078E-02  2.43479320524751E-10
(PID.TID 0000.0001)      cg2d_init_res =   4.31294700210644E-01
(PID.TID 0000.0001)      cg2d_iters(min,last) =      -1     551
(PID.TID 0000.0001)      cg2d_last_res =   9.74672914869005E-08
(PID.TID 0000.0001) // =======================================================
(PID.TID 0000.0001) // Begin MONITOR dynamic field statistics
(PID.TID 0000.0001) // =======================================================
(PID.TID 0000.0001) %MON time_tsnumber                =                  3024
(PID.TID 0000.0001) %MON time_secondsf                =   1.6329600000000E+07
(PID.TID 0000.0001) %MON dynstat_eta_max              =   4.6982425680404E-09
(PID.TID 0000.0001) %MON dynstat_eta_min              =  -5.2973269926689E-09
(PID.TID 0000.0001) %MON dynstat_eta_mean             =   3.9208913405000E-13
(PID.TID 0000.0001) %MON dynstat_eta_sd               =   1.7489382692730E-09
(PID.TID 0000.0001) %MON dynstat_eta_del2             =   1.5129115982356E-14
(PID.TID 0000.0001) %MON dynstat_uvel_max             =   2.1670144540711E-09
(PID.TID 0000.0001) %MON dynstat_uvel_min             =  -2.1606994912153E-09
(PID.TID 0000.0001) %MON dynstat_uvel_mean            =   8.7998840679436E-14
(PID.TID 0000.0001) %MON dynstat_uvel_sd              =   7.4859045330974E-10
(PID.TID 0000.0001) %MON dynstat_uvel_del2            =   4.5364860418587E-14
(PID.TID 0000.0001) %MON dynstat_vvel_max             =   4.6773884200660E-09
(PID.TID 0000.0001) %MON dynstat_vvel_min             =  -3.7289376061974E-09
(PID.TID 0000.0001) %MON dynstat_vvel_mean            =  -3.5824962594670E-14
(PID.TID 0000.0001) %MON dynstat_vvel_sd              =   1.4852687282414E-09
(PID.TID 0000.0001) %MON dynstat_vvel_del2            =   4.1699366584198E-14
(PID.TID 0000.0001) %MON dynstat_wvel_max             =   1.2219788858570E-14
(PID.TID 0000.0001) %MON dynstat_wvel_min             =  -6.6903513107341E-15
(PID.TID 0000.0001) %MON dynstat_wvel_mean            =   3.5067325707858E-28
(PID.TID 0000.0001) %MON dynstat_wvel_sd              =   4.3948523803226E-15
(PID.TID 0000.0001) %MON dynstat_wvel_del2            =   2.6836102980393E-20
(PID.TID 0000.0001) %MON dynstat_theta_max            =   2.0000000000000E+01
(PID.TID 0000.0001) %MON dynstat_theta_min            =   2.0000000000000E+01
(PID.TID 0000.0001) %MON dynstat_theta_mean           =   2.0000000000000E+01
(PID.TID 0000.0001) %MON dynstat_theta_sd             =   0.0000000000000E+00
(PID.TID 0000.0001) %MON dynstat_theta_del2           =   0.0000000000000E+00
(PID.TID 0000.0001) %MON dynstat_salt_max             =   3.0000000000000E+01
(PID.TID 0000.0001) %MON dynstat_salt_min             =   3.0000000000000E+01
(PID.TID 0000.0001) %MON dynstat_salt_mean            =   3.0000000000000E+01
(PID.TID 0000.0001) %MON dynstat_salt_sd              =   0.0000000000000E+00
(PID.TID 0000.0001) %MON dynstat_salt_del2            =   0.0000000000000E+00
(PID.TID 0000.0001) %MON trAdv_CFL_u_max              =   2.3439284829185E-09
(PID.TID 0000.0001) %MON trAdv_CFL_v_max              =   5.0388119774968E-09
(PID.TID 0000.0001) %MON trAdv_CFL_w_max              =   1.3159433974907E-14
(PID.TID 0000.0001) %MON advcfl_uvel_max              =   2.3403756103968E-09
(PID.TID 0000.0001) %MON advcfl_vvel_max              =   5.0515794936713E-09
(PID.TID 0000.0001) %MON advcfl_wvel_max              =   2.6394743934510E-14
(PID.TID 0000.0001) %MON advcfl_W_hf_max              =   0.0000000000000E+00
(PID.TID 0000.0001) %MON pe_b_mean                    =   3.0006683042159E-21
(PID.TID 0000.0001) %MON ke_max                       =   1.1113436838769E-17
(PID.TID 0000.0001) %MON ke_mean                      =   1.3775826491298E-18
(PID.TID 0000.0001) %MON ke_vol                       =   7.5645000000000E+15
(PID.TID 0000.0001) %MON vort_r_min                   =  -7.3269574120223E-14
(PID.TID 0000.0001) %MON vort_r_max                   =   1.2010502442745E-13
(PID.TID 0000.0001) %MON vort_a_mean                  =   8.2300000000001E-05
(PID.TID 0000.0001) %MON vort_a_sd                    =   7.1297555115557E-06
(PID.TID 0000.0001) %MON vort_p_mean                  =   8.3303658536586E-05
(PID.TID 0000.0001) %MON vort_p_sd                    =   1.7411470229833E-05
(PID.TID 0000.0001) %MON surfExpan_theta_mean         =   6.9227310215305E-27
(PID.TID 0000.0001) %MON surfExpan_salt_mean          =   1.0325144069335E-26
(PID.TID 0000.0001) // =======================================================
(PID.TID 0000.0001) // End MONITOR dynamic field statistics
(PID.TID 0000.0001) // =======================================================
 cg2d: Sum(rhs),rhsMax =  -1.66935912451225E-02  2.43718070095032E-10
 cg2d: Sum(rhs),rhsMax =  -1.66795756193783E-02  2.43922861332873E-10
 cg2d: Sum(rhs),rhsMax =  -1.66627086066624E-02  2.44169773183835E-10
 cg2d: Sum(rhs),rhsMax =  -1.66479712993153E-02  2.44385918150793E-10
 cg2d: Sum(rhs),rhsMax =  -1.66356085447131E-02  2.44567531681927E-10
 cg2d: Sum(rhs),rhsMax =  -1.66256133974464E-02  2.44714561261179E-10
 cg2d: Sum(rhs),rhsMax =  -1.66179804897622E-02  2.44826960855481E-10
 cg2d: Sum(rhs),rhsMax =  -1.66086682016906E-02  2.44964230747786E-10
 cg2d: Sum(rhs),rhsMax =  -1.66004554078983E-02  2.45085420694120E-10
 cg2d: Sum(rhs),rhsMax =  -1.65946301728708E-02  2.45171451564478E-10
 cg2d: Sum(rhs),rhsMax =  -1.65911895407465E-02  2.45222292695500E-10
 cg2d: Sum(rhs),rhsMax =  -1.65901321754428E-02  2.45237920051164E-10
 cg2d: Sum(rhs),rhsMax =  -1.65880530974558E-02  2.45268655422620E-10
 cg2d: Sum(rhs),rhsMax =  -1.65865721983493E-02  2.45290551897689E-10
 cg2d: Sum(rhs),rhsMax =  -1.65875052616610E-02  2.45276752292461E-10
 cg2d: Sum(rhs),rhsMax =  -1.65908536258120E-02  2.45227248645073E-10
(PID.TID 0000.0001)      cg2d_init_res =   4.30998387141445E-01
(PID.TID 0000.0001)      cg2d_iters(min,last) =      -1     551
(PID.TID 0000.0001)      cg2d_last_res =   9.83254784340097E-08
(PID.TID 0000.0001) // =======================================================
(PID.TID 0000.0001) // Begin MONITOR dynamic field statistics
(PID.TID 0000.0001) // =======================================================
(PID.TID 0000.0001) %MON time_tsnumber                =                  3040
(PID.TID 0000.0001) %MON time_secondsf                =   1.6416000000000E+07
(PID.TID 0000.0001) %MON dynstat_eta_max              =   4.8169697053949E-09
(PID.TID 0000.0001) %MON dynstat_eta_min              =  -5.0202295377697E-09
(PID.TID 0000.0001) %MON dynstat_eta_mean             =   3.9208908734482E-13
(PID.TID 0000.0001) %MON dynstat_eta_sd               =   1.7571802584037E-09
(PID.TID 0000.0001) %MON dynstat_eta_del2             =   1.4978529794934E-14
(PID.TID 0000.0001) %MON dynstat_uvel_max             =   2.0979012750655E-09
(PID.TID 0000.0001) %MON dynstat_uvel_min             =  -2.2536147318090E-09
(PID.TID 0000.0001) %MON dynstat_uvel_mean            =   4.8499888984690E-14
(PID.TID 0000.0001) %MON dynstat_uvel_sd              =   7.4752399351966E-10
(PID.TID 0000.0001) %MON dynstat_uvel_del2            =   4.6631654411623E-14
(PID.TID 0000.0001) %MON dynstat_vvel_max             =   4.8225745935115E-09
(PID.TID 0000.0001) %MON dynstat_vvel_min             =  -3.8922203082150E-09
(PID.TID 0000.0001) %MON dynstat_vvel_mean            =  -3.6556497337803E-14
(PID.TID 0000.0001) %MON dynstat_vvel_sd              =   1.4754784659543E-09
(PID.TID 0000.0001) %MON dynstat_vvel_del2            =   4.3572512041293E-14
(PID.TID 0000.0001) %MON dynstat_wvel_max             =   1.2684413173703E-14
(PID.TID 0000.0001) %MON dynstat_wvel_min             =  -5.3544113656767E-15
(PID.TID 0000.0001) %MON dynstat_wvel_mean            =  -2.9979176163605E-28
(PID.TID 0000.0001) %MON dynstat_wvel_sd              =   4.3618250168543E-15
(PID.TID 0000.0001) %MON dynstat_wvel_del2            =   2.6963505125473E-20
(PID.TID 0000.0001) %MON dynstat_theta_max            =   2.0000000000000E+01
(PID.TID 0000.0001) %MON dynstat_theta_min            =   2.0000000000000E+01
(PID.TID 0000.0001) %MON dynstat_theta_mean           =   2.0000000000000E+01
(PID.TID 0000.0001) %MON dynstat_theta_sd             =   0.0000000000000E+00
(PID.TID 0000.0001) %MON dynstat_theta_del2           =   0.0000000000000E+00
(PID.TID 0000.0001) %MON dynstat_salt_max             =   3.0000000000000E+01
(PID.TID 0000.0001) %MON dynstat_salt_min             =   3.0000000000000E+01
(PID.TID 0000.0001) %MON dynstat_salt_mean            =   3.0000000000000E+01
(PID.TID 0000.0001) %MON dynstat_salt_sd              =   0.0000000000000E+00
(PID.TID 0000.0001) %MON dynstat_salt_del2            =   0.0000000000000E+00
(PID.TID 0000.0001) %MON trAdv_CFL_u_max              =   2.4289566085568E-09
(PID.TID 0000.0001) %MON trAdv_CFL_v_max              =   5.2008333536321E-09
(PID.TID 0000.0001) %MON trAdv_CFL_w_max              =   1.3672683453825E-14
(PID.TID 0000.0001) %MON advcfl_uvel_max              =   2.4339039103537E-09
(PID.TID 0000.0001) %MON advcfl_vvel_max              =   5.2083805609924E-09
(PID.TID 0000.0001) %MON advcfl_wvel_max              =   2.7398332455197E-14
(PID.TID 0000.0001) %MON advcfl_W_hf_max              =   0.0000000000000E+00
(PID.TID 0000.0001) %MON pe_b_mean                    =   3.0290166445867E-21
(PID.TID 0000.0001) %MON ke_max                       =   1.1952061933704E-17
(PID.TID 0000.0001) %MON ke_mean                      =   1.3623537863361E-18
(PID.TID 0000.0001) %MON ke_vol                       =   7.5645000000000E+15
(PID.TID 0000.0001) %MON vort_r_min                   =  -8.1825448688527E-14
(PID.TID 0000.0001) %MON vort_r_max                   =   1.2239123583355E-13
(PID.TID 0000.0001) %MON vort_a_mean                  =   8.2299999999999E-05
(PID.TID 0000.0001) %MON vort_a_sd                    =   7.1297555115692E-06
(PID.TID 0000.0001) %MON vort_p_mean                  =   8.3303658536584E-05
(PID.TID 0000.0001) %MON vort_p_sd                    =   1.7411470229869E-05
(PID.TID 0000.0001) %MON surfExpan_theta_mean         =  -6.0103025845736E-27
(PID.TID 0000.0001) %MON surfExpan_salt_mean          =  -9.0177426406177E-27
(PID.TID 0000.0001) // =======================================================
(PID.TID 0000.0001) // End MONITOR dynamic field statistics
(PID.TID 0000.0001) // =======================================================
 cg2d: Sum(rhs),rhsMax =  -1.65966203161978E-02  2.45142039740854E-10
 cg2d: Sum(rhs),rhsMax =  -1.66015333151060E-02  2.45069491308435E-10
 cg2d: Sum(rhs),rhsMax =  -1.66070496978512E-02  2.44988084406827E-10
 cg2d: Sum(rhs),rhsMax =  -1.66150214513739E-02  2.44870539321230E-10
 cg2d: Sum(rhs),rhsMax =  -1.66254545760673E-02  2.44716871563435E-10
 cg2d: Sum(rhs),rhsMax =  -1.66383568262254E-02  2.44527103480299E-10
 cg2d: Sum(rhs),rhsMax =  -1.66500999779684E-02  2.44354639114991E-10
 cg2d: Sum(rhs),rhsMax =  -1.66629449363913E-02  2.44166271616585E-10
 cg2d: Sum(rhs),rhsMax =  -1.66783036071205E-02  2.43941422653247E-10
 cg2d: Sum(rhs),rhsMax =  -1.66961871208510E-02  2.43680131891973E-10
 cg2d: Sum(rhs),rhsMax =  -1.67166084306444E-02  2.43382445914470E-10
 cg2d: Sum(rhs),rhsMax =  -1.67350994264096E-02  2.43113525139338E-10
 cg2d: Sum(rhs),rhsMax =  -1.67556798586232E-02  2.42814915145790E-10
 cg2d: Sum(rhs),rhsMax =  -1.67788516677611E-02  2.42479582788350E-10
 cg2d: Sum(rhs),rhsMax =  -1.68046317041156E-02  2.42107592475201E-10
 cg2d: Sum(rhs),rhsMax =  -1.68321371122280E-02  2.41711962437460E-10
(PID.TID 0000.0001)      cg2d_init_res =   4.40293385608098E-01
(PID.TID 0000.0001)      cg2d_iters(min,last) =      -1     551
(PID.TID 0000.0001)      cg2d_last_res =   9.64164776519908E-08
(PID.TID 0000.0001) // =======================================================
(PID.TID 0000.0001) // Begin MONITOR dynamic field statistics
(PID.TID 0000.0001) // =======================================================
(PID.TID 0000.0001) %MON time_tsnumber                =                  3056
(PID.TID 0000.0001) %MON time_secondsf                =   1.6502400000000E+07
(PID.TID 0000.0001) %MON dynstat_eta_max              =   4.8436278690746E-09
(PID.TID 0000.0001) %MON dynstat_eta_min              =  -4.6526622951788E-09
(PID.TID 0000.0001) %MON dynstat_eta_mean             =   3.9208904016406E-13
(PID.TID 0000.0001) %MON dynstat_eta_sd               =   1.7637294620273E-09
(PID.TID 0000.0001) %MON dynstat_eta_del2             =   1.4844552315359E-14
(PID.TID 0000.0001) %MON dynstat_uvel_max             =   2.0051207702420E-09
(PID.TID 0000.0001) %MON dynstat_uvel_min             =  -2.3115781697490E-09
(PID.TID 0000.0001) %MON dynstat_uvel_mean            =   5.8221343764654E-15
(PID.TID 0000.0001) %MON dynstat_uvel_sd              =   7.5274009330105E-10
(PID.TID 0000.0001) %MON dynstat_uvel_del2            =   4.8142708350303E-14
(PID.TID 0000.0001) %MON dynstat_vvel_max             =   4.8995566304253E-09
(PID.TID 0000.0001) %MON dynstat_vvel_min             =  -4.0144663998630E-09
(PID.TID 0000.0001) %MON dynstat_vvel_mean            =  -3.6202514401956E-14
(PID.TID 0000.0001) %MON dynstat_vvel_sd              =   1.4624934411672E-09
(PID.TID 0000.0001) %MON dynstat_vvel_del2            =   4.6107800700912E-14
(PID.TID 0000.0001) %MON dynstat_wvel_max             =   1.2946181849327E-14
(PID.TID 0000.0001) %MON dynstat_wvel_min             =  -5.6208042731321E-15
(PID.TID 0000.0001) %MON dynstat_wvel_mean            =  -2.2665431666825E-28
(PID.TID 0000.0001) %MON dynstat_wvel_sd              =   4.3389106234650E-15
(PID.TID 0000.0001) %MON dynstat_wvel_del2            =   2.7120210292443E-20
(PID.TID 0000.0001) %MON dynstat_theta_max            =   2.0000000000000E+01
(PID.TID 0000.0001) %MON dynstat_theta_min            =   2.0000000000000E+01
(PID.TID 0000.0001) %MON dynstat_theta_mean           =   2.0000000000000E+01
(PID.TID 0000.0001) %MON dynstat_theta_sd             =   0.0000000000000E+00
(PID.TID 0000.0001) %MON dynstat_theta_del2           =   0.0000000000000E+00
(PID.TID 0000.0001) %MON dynstat_salt_max             =   3.0000000000000E+01
(PID.TID 0000.0001) %MON dynstat_salt_min             =   3.0000000000000E+01
(PID.TID 0000.0001) %MON dynstat_salt_mean            =   3.0000000000000E+01
(PID.TID 0000.0001) %MON dynstat_salt_sd              =   0.0000000000000E+00
(PID.TID 0000.0001) %MON dynstat_salt_del2            =   0.0000000000000E+00
(PID.TID 0000.0001) %MON trAdv_CFL_u_max              =   2.4937609451457E-09
(PID.TID 0000.0001) %MON trAdv_CFL_v_max              =   5.2877775644599E-09
(PID.TID 0000.0001) %MON trAdv_CFL_w_max              =   1.3972072653057E-14
(PID.TID 0000.0001) %MON advcfl_uvel_max              =   2.4965044233289E-09
(PID.TID 0000.0001) %MON advcfl_vvel_max              =   5.2915211608593E-09
(PID.TID 0000.0001) %MON advcfl_wvel_max              =   2.7963752794546E-14
(PID.TID 0000.0001) %MON advcfl_W_hf_max              =   0.0000000000000E+00
(PID.TID 0000.0001) %MON pe_b_mean                    =   3.0516376753469E-21
(PID.TID 0000.0001) %MON ke_max                       =   1.2498009311118E-17
(PID.TID 0000.0001) %MON ke_mean                      =   1.3472533641094E-18
(PID.TID 0000.0001) %MON ke_vol                       =   7.5645000000000E+15
(PID.TID 0000.0001) %MON vort_r_min                   =  -8.7237591190420E-14
(PID.TID 0000.0001) %MON vort_r_max                   =   1.2221795697438E-13
(PID.TID 0000.0001) %MON vort_a_mean                  =   8.2299999999999E-05
(PID.TID 0000.0001) %MON vort_a_sd                    =   7.1297555115618E-06
(PID.TID 0000.0001) %MON vort_p_mean                  =   8.3303658536585E-05
(PID.TID 0000.0001) %MON vort_p_sd                    =   1.7411470229895E-05
(PID.TID 0000.0001) %MON surfExpan_theta_mean         =  -4.5947167574180E-27
(PID.TID 0000.0001) %MON surfExpan_salt_mean          =  -6.8355838780281E-27
(PID.TID 0000.0001) // =======================================================
(PID.TID 0000.0001) // End MONITOR dynamic field statistics
(PID.TID 0000.0001) // =======================================================
 cg2d: Sum(rhs),rhsMax =  -1.68582773838395E-02  2.41337164791278E-10
 cg2d: Sum(rhs),rhsMax =  -1.68870878214037E-02  2.40925426763107E-10
 cg2d: Sum(rhs),rhsMax =  -1.69185895964018E-02  2.40476830997092E-10
 cg2d: Sum(rhs),rhsMax =  -1.69528059835167E-02  2.39991467190881E-10
 cg2d: Sum(rhs),rhsMax =  -1.69869865930517E-02  2.39508563328858E-10
 cg2d: Sum(rhs),rhsMax =  -1.70218350654904E-02  2.39018220460533E-10
 cg2d: Sum(rhs),rhsMax =  -1.70594725460966E-02  2.38490884419451E-10
 cg2d: Sum(rhs),rhsMax =  -1.70999273620524E-02  2.37926663663516E-10
 cg2d: Sum(rhs),rhsMax =  -1.71429132115082E-02  2.37330060900102E-10
 cg2d: Sum(rhs),rhsMax =  -1.71842552403173E-02  2.36759088485891E-10
 cg2d: Sum(rhs),rhsMax =  -1.72285006598011E-02  2.36151053285030E-10
 cg2d: Sum(rhs),rhsMax =  -1.72756835142730E-02  2.35506082561853E-10
 cg2d: Sum(rhs),rhsMax =  -1.72394097399979E-02  2.36001613715966E-10
 cg2d: Sum(rhs),rhsMax =  -1.71609696908478E-02  2.37080337805841E-10
 cg2d: Sum(rhs),rhsMax =  -1.70866293679256E-02  2.38111822845901E-10
 cg2d: Sum(rhs),rhsMax =  -1.70163122503581E-02  2.39095779228638E-10
(PID.TID 0000.0001)      cg2d_init_res =   4.47986232693497E-01
(PID.TID 0000.0001)      cg2d_iters(min,last) =      -1     549
(PID.TID 0000.0001)      cg2d_last_res =   9.85663890966009E-08
(PID.TID 0000.0001) // =======================================================
(PID.TID 0000.0001) // Begin MONITOR dynamic field statistics
(PID.TID 0000.0001) // =======================================================
(PID.TID 0000.0001) %MON time_tsnumber                =                  3072
(PID.TID 0000.0001) %MON time_secondsf                =   1.6588800000000E+07
(PID.TID 0000.0001) %MON dynstat_eta_max              =   4.7788148664240E-09
(PID.TID 0000.0001) %MON dynstat_eta_min              =  -4.2043750628695E-09
(PID.TID 0000.0001) %MON dynstat_eta_mean             =   3.9208899567410E-13
(PID.TID 0000.0001) %MON dynstat_eta_sd               =   1.7674370343393E-09
(PID.TID 0000.0001) %MON dynstat_eta_del2             =   1.4737174730032E-14
(PID.TID 0000.0001) %MON dynstat_uvel_max             =   1.8950364858795E-09
(PID.TID 0000.0001) %MON dynstat_uvel_min             =  -2.3268974795563E-09
(PID.TID 0000.0001) %MON dynstat_uvel_mean            =  -3.7547429171068E-14
(PID.TID 0000.0001) %MON dynstat_uvel_sd              =   7.6419984302146E-10
(PID.TID 0000.0001) %MON dynstat_uvel_del2            =   4.9584199837406E-14
(PID.TID 0000.0001) %MON dynstat_vvel_max             =   4.9195989349633E-09
(PID.TID 0000.0001) %MON dynstat_vvel_min             =  -4.0886300795072E-09
(PID.TID 0000.0001) %MON dynstat_vvel_mean            =  -3.4738873662616E-14
(PID.TID 0000.0001) %MON dynstat_vvel_sd              =   1.4461253468976E-09
(PID.TID 0000.0001) %MON dynstat_vvel_del2            =   4.9226987199184E-14
(PID.TID 0000.0001) %MON dynstat_wvel_max             =   1.2987460766278E-14
(PID.TID 0000.0001) %MON dynstat_wvel_min             =  -6.5527015957745E-15
(PID.TID 0000.0001) %MON dynstat_wvel_mean            =   4.0954139320420E-28
(PID.TID 0000.0001) %MON dynstat_wvel_sd              =   4.3281176221908E-15
(PID.TID 0000.0001) %MON dynstat_wvel_del2            =   2.7287307603116E-20
(PID.TID 0000.0001) %MON dynstat_theta_max            =   2.0000000000000E+01
(PID.TID 0000.0001) %MON dynstat_theta_min            =   2.0000000000000E+01
(PID.TID 0000.0001) %MON dynstat_theta_mean           =   2.0000000000000E+01
(PID.TID 0000.0001) %MON dynstat_theta_sd             =   0.0000000000000E+00
(PID.TID 0000.0001) %MON dynstat_theta_del2           =   0.0000000000000E+00
(PID.TID 0000.0001) %MON dynstat_salt_max             =   3.0000000000000E+01
(PID.TID 0000.0001) %MON dynstat_salt_min             =   3.0000000000000E+01
(PID.TID 0000.0001) %MON dynstat_salt_mean            =   3.0000000000000E+01
(PID.TID 0000.0001) %MON dynstat_salt_sd              =   0.0000000000000E+00
(PID.TID 0000.0001) %MON dynstat_salt_del2            =   0.0000000000000E+00
(PID.TID 0000.0001) %MON trAdv_CFL_u_max              =   2.5136467907580E-09
(PID.TID 0000.0001) %MON trAdv_CFL_v_max              =   5.3128569294297E-09
(PID.TID 0000.0001) %MON trAdv_CFL_w_max              =   1.4030658617736E-14
(PID.TID 0000.0001) %MON advcfl_uvel_max              =   2.5130492779208E-09
(PID.TID 0000.0001) %MON advcfl_vvel_max              =   5.3131668497604E-09
(PID.TID 0000.0001) %MON advcfl_wvel_max              =   2.8052915255161E-14
(PID.TID 0000.0001) %MON advcfl_W_hf_max              =   0.0000000000000E+00
(PID.TID 0000.0001) %MON pe_b_mean                    =   3.0644809814304E-21
(PID.TID 0000.0001) %MON ke_max                       =   1.2762118218369E-17
(PID.TID 0000.0001) %MON ke_mean                      =   1.3322023999988E-18
(PID.TID 0000.0001) %MON ke_vol                       =   7.5645000000000E+15
(PID.TID 0000.0001) %MON vort_r_min                   =  -8.8944620896418E-14
(PID.TID 0000.0001) %MON vort_r_max                   =   1.1937001600931E-13
(PID.TID 0000.0001) %MON vort_a_mean                  =   8.2300000000001E-05
(PID.TID 0000.0001) %MON vort_a_sd                    =   7.1297555115557E-06
(PID.TID 0000.0001) %MON vort_p_mean                  =   8.3303658536586E-05
(PID.TID 0000.0001) %MON vort_p_sd                    =   1.7411470229919E-05
(PID.TID 0000.0001) %MON surfExpan_theta_mean         =   8.1053030061864E-27
(PID.TID 0000.0001) %MON surfExpan_salt_mean          =   1.2102724086793E-26
(PID.TID 0000.0001) // =======================================================
(PID.TID 0000.0001) // End MONITOR dynamic field statistics
(PID.TID 0000.0001) // =======================================================
 cg2d: Sum(rhs),rhsMax =  -1.69485918991488E-02  2.40051116342295E-10
 cg2d: Sum(rhs),rhsMax =  -1.68795952589884E-02  2.41032341849387E-10
 cg2d: Sum(rhs),rhsMax =  -1.68145088199896E-02  2.41965340174239E-10
 cg2d: Sum(rhs),rhsMax =  -1.67532667809535E-02  2.42849849523588E-10
 cg2d: Sum(rhs),rhsMax =  -1.66958078917799E-02  2.43685619491259E-10
 cg2d: Sum(rhs),rhsMax =  -1.66420753192138E-02  2.44472410022965E-10
 cg2d: Sum(rhs),rhsMax =  -1.65902105494087E-02  2.45236684652134E-10
 cg2d: Sum(rhs),rhsMax =  -1.65374567137058E-02  2.46018978114857E-10
 cg2d: Sum(rhs),rhsMax =  -1.64883495532664E-02  2.46751693207841E-10
 cg2d: Sum(rhs),rhsMax =  -1.64428411782826E-02  2.47434619068984E-10
 cg2d: Sum(rhs),rhsMax =  -1.64008875715679E-02  2.48067557016996E-10
 cg2d: Sum(rhs),rhsMax =  -1.63624486884946E-02  2.48650318821678E-10
 cg2d: Sum(rhs),rhsMax =  -1.63250001698345E-02  2.49220705101127E-10
 cg2d: Sum(rhs),rhsMax =  -1.62873108188354E-02  2.49797407931003E-10
 cg2d: Sum(rhs),rhsMax =  -1.62530844627127E-02  2.50323438638954E-10
 cg2d: Sum(rhs),rhsMax =  -1.62222888186761E-02  2.50798639082977E-10
(PID.TID 0000.0001)      cg2d_init_res =   4.29269626570737E-01
(PID.TID 0000.0001)      cg2d_iters(min,last) =      -1     549
(PID.TID 0000.0001)      cg2d_last_res =   9.77440928320827E-08
(PID.TID 0000.0001) // =======================================================
(PID.TID 0000.0001) // Begin MONITOR dynamic field statistics
(PID.TID 0000.0001) // =======================================================
(PID.TID 0000.0001) %MON time_tsnumber                =                  3088
(PID.TID 0000.0001) %MON time_secondsf                =   1.6675200000000E+07
(PID.TID 0000.0001) %MON dynstat_eta_max              =   4.7217425651137E-09
(PID.TID 0000.0001) %MON dynstat_eta_min              =  -3.6880461336889E-09
(PID.TID 0000.0001) %MON dynstat_eta_mean             =   3.9208894968056E-13
(PID.TID 0000.0001) %MON dynstat_eta_sd               =   1.7679265313680E-09
(PID.TID 0000.0001) %MON dynstat_eta_del2             =   1.4665776049761E-14
(PID.TID 0000.0001) %MON dynstat_uvel_max             =   1.7755887972791E-09
(PID.TID 0000.0001) %MON dynstat_uvel_min             =  -2.2972504995623E-09
(PID.TID 0000.0001) %MON dynstat_uvel_mean            =  -7.9095440993979E-14
(PID.TID 0000.0001) %MON dynstat_uvel_sd              =   7.8023563913550E-10
(PID.TID 0000.0001) %MON dynstat_uvel_del2            =   5.0686682592265E-14
(PID.TID 0000.0001) %MON dynstat_vvel_max             =   4.9151712797664E-09
(PID.TID 0000.0001) %MON dynstat_vvel_min             =  -4.1106806700370E-09
(PID.TID 0000.0001) %MON dynstat_vvel_mean            =  -3.2189422730092E-14
(PID.TID 0000.0001) %MON dynstat_vvel_sd              =   1.4269563821215E-09
(PID.TID 0000.0001) %MON dynstat_vvel_del2            =   5.2761271467811E-14
(PID.TID 0000.0001) %MON dynstat_wvel_max             =   1.2802626752628E-14
(PID.TID 0000.0001) %MON dynstat_wvel_min             =  -7.4145757084088E-15
(PID.TID 0000.0001) %MON dynstat_wvel_mean            =  -1.4992680018000E-28
(PID.TID 0000.0001) %MON dynstat_wvel_sd              =   4.3289380052652E-15
(PID.TID 0000.0001) %MON dynstat_wvel_del2            =   2.7437742439410E-20
(PID.TID 0000.0001) %MON dynstat_theta_max            =   2.0000000000000E+01
(PID.TID 0000.0001) %MON dynstat_theta_min            =   2.0000000000000E+01
(PID.TID 0000.0001) %MON dynstat_theta_mean           =   2.0000000000000E+01
(PID.TID 0000.0001) %MON dynstat_theta_sd             =   0.0000000000000E+00
(PID.TID 0000.0001) %MON dynstat_theta_del2           =   0.0000000000000E+00
(PID.TID 0000.0001) %MON dynstat_salt_max             =   3.0000000000000E+01
(PID.TID 0000.0001) %MON dynstat_salt_min             =   3.0000000000000E+01
(PID.TID 0000.0001) %MON dynstat_salt_mean            =   3.0000000000000E+01
(PID.TID 0000.0001) %MON dynstat_salt_sd              =   0.0000000000000E+00
(PID.TID 0000.0001) %MON dynstat_salt_del2            =   0.0000000000000E+00
(PID.TID 0000.0001) %MON trAdv_CFL_u_max              =   2.4845306615901E-09
(PID.TID 0000.0001) %MON trAdv_CFL_v_max              =   5.3101977002736E-09
(PID.TID 0000.0001) %MON trAdv_CFL_w_max              =   1.3845066958496E-14
(PID.TID 0000.0001) %MON advcfl_uvel_max              =   2.4810305395273E-09
(PID.TID 0000.0001) %MON advcfl_vvel_max              =   5.3083849821477E-09
(PID.TID 0000.0001) %MON advcfl_wvel_max              =   2.7653673785677E-14
(PID.TID 0000.0001) %MON advcfl_W_hf_max              =   0.0000000000000E+00
(PID.TID 0000.0001) %MON pe_b_mean                    =   3.0661786509417E-21
(PID.TID 0000.0001) %MON ke_max                       =   1.2744776752322E-17
(PID.TID 0000.0001) %MON ke_mean                      =   1.3171101284654E-18
(PID.TID 0000.0001) %MON ke_vol                       =   7.5645000000000E+15
(PID.TID 0000.0001) %MON vort_r_min                   =  -8.6677632472502E-14
(PID.TID 0000.0001) %MON vort_r_max                   =   1.1374039970165E-13
(PID.TID 0000.0001) %MON vort_a_mean                  =   8.2300000000000E-05
(PID.TID 0000.0001) %MON vort_a_sd                    =   7.1297555115620E-06
(PID.TID 0000.0001) %MON vort_p_mean                  =   8.3303658536585E-05
(PID.TID 0000.0001) %MON vort_p_sd                    =   1.7411470229942E-05
(PID.TID 0000.0001) %MON surfExpan_theta_mean         =  -3.0881850435866E-27
(PID.TID 0000.0001) %MON surfExpan_salt_mean          =  -4.7117829925117E-27
(PID.TID 0000.0001) // =======================================================
(PID.TID 0000.0001) // End MONITOR dynamic field statistics
(PID.TID 0000.0001) // =======================================================
 cg2d: Sum(rhs),rhsMax =  -1.61948951798097E-02  2.51222862717753E-10
 cg2d: Sum(rhs),rhsMax =  -1.61708783409435E-02  2.51595974593841E-10
 cg2d: Sum(rhs),rhsMax =  -1.61468359443130E-02  2.51970595366847E-10
 cg2d: Sum(rhs),rhsMax =  -1.61234344244520E-02  2.52336303273807E-10
 cg2d: Sum(rhs),rhsMax =  -1.61033825333719E-02  2.52650509856972E-10
 cg2d: Sum(rhs),rhsMax =  -1.60866622091008E-02  2.52913110530639E-10
 cg2d: Sum(rhs),rhsMax =  -1.60732587470355E-02  2.53124012456369E-10
 cg2d: Sum(rhs),rhsMax =  -1.60631607963304E-02  2.53283134532306E-10
 cg2d: Sum(rhs),rhsMax =  -1.60518837880480E-02  2.53461072825789E-10
 cg2d: Sum(rhs),rhsMax =  -1.60423516781412E-02  2.53611673497232E-10
 cg2d: Sum(rhs),rhsMax =  -1.60361207597271E-02  2.53710213817726E-10
 cg2d: Sum(rhs),rhsMax =  -1.60331865069657E-02  2.53756643547484E-10
 cg2d: Sum(rhs),rhsMax =  -1.60335477670415E-02  2.53750924245863E-10
 cg2d: Sum(rhs),rhsMax =  -1.60372066400426E-02  2.53693029330559E-10
 cg2d: Sum(rhs),rhsMax =  -1.60383885557958E-02  2.53674331944410E-10
 cg2d: Sum(rhs),rhsMax =  -1.60426443735665E-02  2.53607034548189E-10
(PID.TID 0000.0001)      cg2d_init_res =   4.25805245426946E-01
(PID.TID 0000.0001)      cg2d_iters(min,last) =      -1     548
(PID.TID 0000.0001)      cg2d_last_res =   9.86163630661892E-08
(PID.TID 0000.0001) // =======================================================
(PID.TID 0000.0001) // Begin MONITOR dynamic field statistics
(PID.TID 0000.0001) // =======================================================
(PID.TID 0000.0001) %MON time_tsnumber                =                  3104
(PID.TID 0000.0001) %MON time_secondsf                =   1.6761600000000E+07
(PID.TID 0000.0001) %MON dynstat_eta_max              =   5.0784198547174E-09
(PID.TID 0000.0001) %MON dynstat_eta_min              =  -3.1172489224338E-09
(PID.TID 0000.0001) %MON dynstat_eta_mean             =   3.9208890196779E-13
(PID.TID 0000.0001) %MON dynstat_eta_sd               =   1.7655591809534E-09
(PID.TID 0000.0001) %MON dynstat_eta_del2             =   1.4637484073353E-14
(PID.TID 0000.0001) %MON dynstat_uvel_max             =   1.6559964075053E-09
(PID.TID 0000.0001) %MON dynstat_uvel_min             =  -2.2225595149804E-09
(PID.TID 0000.0001) %MON dynstat_uvel_mean            =  -1.1642311264853E-13
(PID.TID 0000.0001) %MON dynstat_uvel_sd              =   7.9794723469073E-10
(PID.TID 0000.0001) %MON dynstat_uvel_del2            =   5.1271857218217E-14
(PID.TID 0000.0001) %MON dynstat_vvel_max             =   4.8631887526035E-09
(PID.TID 0000.0001) %MON dynstat_vvel_min             =  -4.0774403347755E-09
(PID.TID 0000.0001) %MON dynstat_vvel_mean            =  -2.8625291750950E-14
(PID.TID 0000.0001) %MON dynstat_vvel_sd              =   1.4062964970600E-09
(PID.TID 0000.0001) %MON dynstat_vvel_del2            =   5.6473819629015E-14
(PID.TID 0000.0001) %MON dynstat_wvel_max             =   1.2394454934062E-14
(PID.TID 0000.0001) %MON dynstat_wvel_min             =  -8.1773141963337E-15
(PID.TID 0000.0001) %MON dynstat_wvel_mean            =   1.0067269012013E-28
(PID.TID 0000.0001) %MON dynstat_wvel_sd              =   4.3385789830051E-15
(PID.TID 0000.0001) %MON dynstat_wvel_del2            =   2.7547934809236E-20
(PID.TID 0000.0001) %MON dynstat_theta_max            =   2.0000000000000E+01
(PID.TID 0000.0001) %MON dynstat_theta_min            =   2.0000000000000E+01
(PID.TID 0000.0001) %MON dynstat_theta_mean           =   2.0000000000000E+01
(PID.TID 0000.0001) %MON dynstat_theta_sd             =   0.0000000000000E+00
(PID.TID 0000.0001) %MON dynstat_theta_del2           =   0.0000000000000E+00
(PID.TID 0000.0001) %MON dynstat_salt_max             =   3.0000000000000E+01
(PID.TID 0000.0001) %MON dynstat_salt_min             =   3.0000000000000E+01
(PID.TID 0000.0001) %MON dynstat_salt_mean            =   3.0000000000000E+01
(PID.TID 0000.0001) %MON dynstat_salt_sd              =   0.0000000000000E+00
(PID.TID 0000.0001) %MON dynstat_salt_del2            =   0.0000000000000E+00
(PID.TID 0000.0001) %MON trAdv_CFL_u_max              =   2.4069939413512E-09
(PID.TID 0000.0001) %MON trAdv_CFL_v_max              =   5.2573117520807E-09
(PID.TID 0000.0001) %MON trAdv_CFL_w_max              =   1.3420047955104E-14
(PID.TID 0000.0001) %MON advcfl_uvel_max              =   2.4003642761788E-09
(PID.TID 0000.0001) %MON advcfl_vvel_max              =   5.2522438528117E-09
(PID.TID 0000.0001) %MON advcfl_wvel_max              =   2.6772022657573E-14
(PID.TID 0000.0001) %MON advcfl_W_hf_max              =   0.0000000000000E+00
(PID.TID 0000.0001) %MON pe_b_mean                    =   3.0579725870540E-21
(PID.TID 0000.0001) %MON ke_max                       =   1.2427075605203E-17
(PID.TID 0000.0001) %MON ke_mean                      =   1.3018810205997E-18
(PID.TID 0000.0001) %MON ke_vol                       =   7.5645000000000E+15
(PID.TID 0000.0001) %MON vort_r_min                   =  -9.1144372313712E-14
(PID.TID 0000.0001) %MON vort_r_max                   =   1.0535885417237E-13
(PID.TID 0000.0001) %MON vort_a_mean                  =   8.2300000000001E-05
(PID.TID 0000.0001) %MON vort_a_sd                    =   7.1297555115512E-06
(PID.TID 0000.0001) %MON vort_p_mean                  =   8.3303658536586E-05
(PID.TID 0000.0001) %MON vort_p_sd                    =   1.7411470229951E-05
(PID.TID 0000.0001) %MON surfExpan_theta_mean         =   2.0172776323976E-27
(PID.TID 0000.0001) %MON surfExpan_salt_mean          =   2.9948568942425E-27
(PID.TID 0000.0001) // =======================================================
(PID.TID 0000.0001) // End MONITOR dynamic field statistics
(PID.TID 0000.0001) // =======================================================
 cg2d: Sum(rhs),rhsMax =  -1.60502161494371E-02  2.53487392079730E-10
 cg2d: Sum(rhs),rhsMax =  -1.60611129737300E-02  2.53315409020877E-10
 cg2d: Sum(rhs),rhsMax =  -1.60753473427623E-02  2.53091101780341E-10
 cg2d: Sum(rhs),rhsMax =  -1.60916675997644E-02  2.52834413301427E-10
 cg2d: Sum(rhs),rhsMax =  -1.61065896615653E-02  2.52600171109175E-10
 cg2d: Sum(rhs),rhsMax =  -1.61248875632228E-02  2.52313528048958E-10
 cg2d: Sum(rhs),rhsMax =  -1.61465811978351E-02  2.51974531776075E-10
 cg2d: Sum(rhs),rhsMax =  -1.61716940186768E-02  2.51583241789077E-10
 cg2d: Sum(rhs),rhsMax =  -1.60240701210482E-02  2.53900983974181E-10
 cg2d: Sum(rhs),rhsMax =  -1.58759873383525E-02  2.56269235597314E-10
 cg2d: Sum(rhs),rhsMax =  -1.57322380324088E-02  2.58610828156296E-10
 cg2d: Sum(rhs),rhsMax =  -1.55926918131065E-02  2.60925253915419E-10
 cg2d: Sum(rhs),rhsMax =  -1.54572241571391E-02  2.63212009618259E-10
 cg2d: Sum(rhs),rhsMax =  -1.53257161052698E-02  2.65470596599274E-10
 cg2d: Sum(rhs),rhsMax =  -1.51980539511615E-02  2.67700520894333E-10
 cg2d: Sum(rhs),rhsMax =  -1.50735152118276E-02  2.69912284272011E-10
(PID.TID 0000.0001)      cg2d_init_res =   4.00264193319862E-01
(PID.TID 0000.0001)      cg2d_iters(min,last) =      -1     548
(PID.TID 0000.0001)      cg2d_last_res =   9.56132825369466E-08
(PID.TID 0000.0001) // =======================================================
(PID.TID 0000.0001) // Begin MONITOR dynamic field statistics
(PID.TID 0000.0001) // =======================================================
(PID.TID 0000.0001) %MON time_tsnumber                =                  3120
(PID.TID 0000.0001) %MON time_secondsf                =   1.6848000000000E+07
(PID.TID 0000.0001) %MON dynstat_eta_max              =   5.3612988030270E-09
(PID.TID 0000.0001) %MON dynstat_eta_min              =  -2.5117409800391E-09
(PID.TID 0000.0001) %MON dynstat_eta_mean             =   3.9208884897781E-13
(PID.TID 0000.0001) %MON dynstat_eta_sd               =   1.7612601190505E-09
(PID.TID 0000.0001) %MON dynstat_eta_del2             =   1.4655587826562E-14
(PID.TID 0000.0001) %MON dynstat_uvel_max             =   1.7194790556050E-09
(PID.TID 0000.0001) %MON dynstat_uvel_min             =  -2.0971046580241E-09
(PID.TID 0000.0001) %MON dynstat_uvel_mean            =  -1.4737969126938E-13
(PID.TID 0000.0001) %MON dynstat_uvel_sd              =   8.1390216276140E-10
(PID.TID 0000.0001) %MON dynstat_uvel_del2            =   5.1276896541013E-14
(PID.TID 0000.0001) %MON dynstat_vvel_max             =   4.7433868397799E-09
(PID.TID 0000.0001) %MON dynstat_vvel_min             =  -3.9877642793580E-09
(PID.TID 0000.0001) %MON dynstat_vvel_mean            =  -2.4161790746818E-14
(PID.TID 0000.0001) %MON dynstat_vvel_sd              =   1.3859700937587E-09
(PID.TID 0000.0001) %MON dynstat_vvel_del2            =   6.0092661493652E-14
(PID.TID 0000.0001) %MON dynstat_wvel_max             =   1.1773441296326E-14
(PID.TID 0000.0001) %MON dynstat_wvel_min             =  -8.8262142106110E-15
(PID.TID 0000.0001) %MON dynstat_wvel_mean            =  -3.2933006833129E-28
(PID.TID 0000.0001) %MON dynstat_wvel_sd              =   4.3527263817890E-15
(PID.TID 0000.0001) %MON dynstat_wvel_del2            =   2.7598798855892E-20
(PID.TID 0000.0001) %MON dynstat_theta_max            =   2.0000000000000E+01
(PID.TID 0000.0001) %MON dynstat_theta_min            =   2.0000000000000E+01
(PID.TID 0000.0001) %MON dynstat_theta_mean           =   2.0000000000000E+01
(PID.TID 0000.0001) %MON dynstat_theta_sd             =   0.0000000000000E+00
(PID.TID 0000.0001) %MON dynstat_theta_del2           =   0.0000000000000E+00
(PID.TID 0000.0001) %MON dynstat_salt_max             =   3.0000000000000E+01
(PID.TID 0000.0001) %MON dynstat_salt_min             =   3.0000000000000E+01
(PID.TID 0000.0001) %MON dynstat_salt_mean            =   3.0000000000000E+01
(PID.TID 0000.0001) %MON dynstat_salt_sd              =   0.0000000000000E+00
(PID.TID 0000.0001) %MON dynstat_salt_del2            =   0.0000000000000E+00
(PID.TID 0000.0001) %MON trAdv_CFL_u_max              =   2.2747618971098E-09
(PID.TID 0000.0001) %MON trAdv_CFL_v_max              =   5.1323277207338E-09
(PID.TID 0000.0001) %MON trAdv_CFL_w_max              =   1.2764202220383E-14
(PID.TID 0000.0001) %MON advcfl_uvel_max              =   2.2648730306660E-09
(PID.TID 0000.0001) %MON advcfl_vvel_max              =   5.1228577869623E-09
(PID.TID 0000.0001) %MON advcfl_wvel_max              =   2.5430633200063E-14
(PID.TID 0000.0001) %MON advcfl_W_hf_max              =   0.0000000000000E+00
(PID.TID 0000.0001) %MON pe_b_mean                    =   3.0430986508383E-21
(PID.TID 0000.0001) %MON ke_max                       =   1.1798502303109E-17
(PID.TID 0000.0001) %MON ke_mean                      =   1.2864242157382E-18
(PID.TID 0000.0001) %MON ke_vol                       =   7.5645000000000E+15
(PID.TID 0000.0001) %MON vort_r_min                   =  -1.1015861797969E-13
(PID.TID 0000.0001) %MON vort_r_max                   =   1.1785151930286E-13
(PID.TID 0000.0001) %MON vort_a_mean                  =   8.2300000000001E-05
(PID.TID 0000.0001) %MON vort_a_sd                    =   7.1297555115540E-06
(PID.TID 0000.0001) %MON vort_p_mean                  =   8.3303658536586E-05
(PID.TID 0000.0001) %MON vort_p_sd                    =   1.7411470229959E-05
(PID.TID 0000.0001) %MON surfExpan_theta_mean         =  -6.6208885436923E-27
(PID.TID 0000.0001) %MON surfExpan_salt_mean          =  -9.9512900740736E-27
(PID.TID 0000.0001) // =======================================================
(PID.TID 0000.0001) // End MONITOR dynamic field statistics
(PID.TID 0000.0001) // =======================================================
 cg2d: Sum(rhs),rhsMax =  -1.49526006219719E-02  2.72094934272010E-10
 cg2d: Sum(rhs),rhsMax =  -1.48352458143503E-02  2.74247349307048E-10
 cg2d: Sum(rhs),rhsMax =  -1.47213545558037E-02  2.76369051698177E-10
 cg2d: Sum(rhs),rhsMax =  -1.46108347886664E-02  2.78459569038731E-10
 cg2d: Sum(rhs),rhsMax =  -1.45035984020527E-02  2.80518434299579E-10
 cg2d: Sum(rhs),rhsMax =  -1.43995611007052E-02  2.82545185933007E-10
 cg2d: Sum(rhs),rhsMax =  -1.42986422128456E-02  2.84539367975929E-10
 cg2d: Sum(rhs),rhsMax =  -1.42007645367817E-02  2.86500530151238E-10
 cg2d: Sum(rhs),rhsMax =  -1.41058541583294E-02  2.88428227968932E-10
 cg2d: Sum(rhs),rhsMax =  -1.40136973487783E-02  2.90324984793530E-10
 cg2d: Sum(rhs),rhsMax =  -1.39240416890772E-02  2.92194357542433E-10
 cg2d: Sum(rhs),rhsMax =  -1.38371685258176E-02  2.94028821954095E-10
 cg2d: Sum(rhs),rhsMax =  -1.37530150226950E-02  2.95827954494306E-10
 cg2d: Sum(rhs),rhsMax =  -1.36715210549507E-02  2.97591337939971E-10
 cg2d: Sum(rhs),rhsMax =  -1.35926290721958E-02  2.99318561473013E-10
 cg2d: Sum(rhs),rhsMax =  -1.35162840041608E-02  3.01009220772689E-10
(PID.TID 0000.0001)      cg2d_init_res =   3.58102963658202E-01
(PID.TID 0000.0001)      cg2d_iters(min,last) =      -1     548
(PID.TID 0000.0001)      cg2d_last_res =   9.78740983904612E-08
(PID.TID 0000.0001) // =======================================================
(PID.TID 0000.0001) // Begin MONITOR dynamic field statistics
(PID.TID 0000.0001) // =======================================================
(PID.TID 0000.0001) %MON time_tsnumber                =                  3136
(PID.TID 0000.0001) %MON time_secondsf                =   1.6934400000000E+07
(PID.TID 0000.0001) %MON dynstat_eta_max              =   5.5624197925187E-09
(PID.TID 0000.0001) %MON dynstat_eta_min              =  -2.0410603040203E-09
(PID.TID 0000.0001) %MON dynstat_eta_mean             =   3.9208876822567E-13
(PID.TID 0000.0001) %MON dynstat_eta_sd               =   1.7562472087823E-09
(PID.TID 0000.0001) %MON dynstat_eta_del2             =   1.4718324021271E-14
(PID.TID 0000.0001) %MON dynstat_uvel_max             =   1.7288810088311E-09
(PID.TID 0000.0001) %MON dynstat_uvel_min             =  -2.2392221482645E-09
(PID.TID 0000.0001) %MON dynstat_uvel_mean            =  -1.7018109417296E-13
(PID.TID 0000.0001) %MON dynstat_uvel_sd              =   8.2486825341601E-10
(PID.TID 0000.0001) %MON dynstat_uvel_del2            =   5.0763015027636E-14
(PID.TID 0000.0001) %MON dynstat_vvel_max             =   4.5564250884253E-09
(PID.TID 0000.0001) %MON dynstat_vvel_min             =  -3.8418406890544E-09
(PID.TID 0000.0001) %MON dynstat_vvel_mean            =  -1.8953068266139E-14
(PID.TID 0000.0001) %MON dynstat_vvel_sd              =   1.3679525061245E-09
(PID.TID 0000.0001) %MON dynstat_vvel_del2            =   6.3343767701912E-14
(PID.TID 0000.0001) %MON dynstat_wvel_max             =   1.0959739204508E-14
(PID.TID 0000.0001) %MON dynstat_wvel_min             =  -9.3567188741428E-15
(PID.TID 0000.0001) %MON dynstat_wvel_mean            =   5.8761292512761E-29
(PID.TID 0000.0001) %MON dynstat_wvel_sd              =   4.3665993769085E-15
(PID.TID 0000.0001) %MON dynstat_wvel_del2            =   2.7581104740796E-20
(PID.TID 0000.0001) %MON dynstat_theta_max            =   2.0000000000000E+01
(PID.TID 0000.0001) %MON dynstat_theta_min            =   2.0000000000000E+01
(PID.TID 0000.0001) %MON dynstat_theta_mean           =   2.0000000000000E+01
(PID.TID 0000.0001) %MON dynstat_theta_sd             =   0.0000000000000E+00
(PID.TID 0000.0001) %MON dynstat_theta_del2           =   0.0000000000000E+00
(PID.TID 0000.0001) %MON dynstat_salt_max             =   3.0000000000000E+01
(PID.TID 0000.0001) %MON dynstat_salt_min             =   3.0000000000000E+01
(PID.TID 0000.0001) %MON dynstat_salt_mean            =   3.0000000000000E+01
(PID.TID 0000.0001) %MON dynstat_salt_sd              =   0.0000000000000E+00
(PID.TID 0000.0001) %MON dynstat_salt_del2            =   0.0000000000000E+00
(PID.TID 0000.0001) %MON trAdv_CFL_u_max              =   2.4003695175473E-09
(PID.TID 0000.0001) %MON trAdv_CFL_v_max              =   4.9360714210394E-09
(PID.TID 0000.0001) %MON trAdv_CFL_w_max              =   1.1896984922610E-14
(PID.TID 0000.0001) %MON advcfl_uvel_max              =   2.4183599201257E-09
(PID.TID 0000.0001) %MON advcfl_vvel_max              =   4.9209390954993E-09
(PID.TID 0000.0001) %MON advcfl_wvel_max              =   2.3673036681737E-14
(PID.TID 0000.0001) %MON advcfl_W_hf_max              =   0.0000000000000E+00
(PID.TID 0000.0001) %MON pe_b_mean                    =   3.0258007282595E-21
(PID.TID 0000.0001) %MON ke_max                       =   1.0882223905108E-17
(PID.TID 0000.0001) %MON ke_mean                      =   1.2706644762958E-18
(PID.TID 0000.0001) %MON ke_vol                       =   7.5645000000000E+15
(PID.TID 0000.0001) %MON vort_r_min                   =  -1.2659110869124E-13
(PID.TID 0000.0001) %MON vort_r_max                   =   1.2880721563993E-13
(PID.TID 0000.0001) %MON vort_a_mean                  =   8.2300000000000E-05
(PID.TID 0000.0001) %MON vort_a_sd                    =   7.1297555115581E-06
(PID.TID 0000.0001) %MON vort_p_mean                  =   8.3303658536585E-05
(PID.TID 0000.0001) %MON vort_p_sd                    =   1.7411470229956E-05
(PID.TID 0000.0001) %MON surfExpan_theta_mean         =   1.1273684361072E-27
(PID.TID 0000.0001) %MON surfExpan_salt_mean          =   1.6692657283168E-27
(PID.TID 0000.0001) // =======================================================
(PID.TID 0000.0001) // End MONITOR dynamic field statistics
(PID.TID 0000.0001) // =======================================================
 cg2d: Sum(rhs),rhsMax =  -1.34424331581483E-02  3.02662918106563E-10
 cg2d: Sum(rhs),rhsMax =  -1.33710261534808E-02  3.04279262420349E-10
 cg2d: Sum(rhs),rhsMax =  -1.33020147789742E-02  3.05857869425890E-10
 cg2d: Sum(rhs),rhsMax =  -1.32353529688670E-02  3.07398361688254E-10
 cg2d: Sum(rhs),rhsMax =  -1.31709967001542E-02  3.08900368710853E-10
 cg2d: Sum(rhs),rhsMax =  -1.31089039004906E-02  3.10363527019536E-10
 cg2d: Sum(rhs),rhsMax =  -1.30490343951240E-02  3.11787480244960E-10
 cg2d: Sum(rhs),rhsMax =  -1.29910414044073E-02  3.13179315436844E-10
 cg2d: Sum(rhs),rhsMax =  -1.29352008408231E-02  3.14531285344495E-10
 cg2d: Sum(rhs),rhsMax =  -1.28814860713241E-02  3.15842846528234E-10
 cg2d: Sum(rhs),rhsMax =  -1.28298635230559E-02  3.17113669334259E-10
 cg2d: Sum(rhs),rhsMax =  -1.27803012368548E-02  3.18343431651254E-10
 cg2d: Sum(rhs),rhsMax =  -1.27327688507781E-02  3.19531818984371E-10
 cg2d: Sum(rhs),rhsMax =  -1.26872375037129E-02  3.20678524527080E-10
 cg2d: Sum(rhs),rhsMax =  -1.26436798632787E-02  3.21783249232176E-10
 cg2d: Sum(rhs),rhsMax =  -1.26020699855618E-02  3.22845701880438E-10
(PID.TID 0000.0001)      cg2d_init_res =   3.32335528405522E-01
(PID.TID 0000.0001)      cg2d_iters(min,last) =      -1     548
(PID.TID 0000.0001)      cg2d_last_res =   9.73728945081416E-08
(PID.TID 0000.0001) // =======================================================
(PID.TID 0000.0001) // Begin MONITOR dynamic field statistics
(PID.TID 0000.0001) // =======================================================
(PID.TID 0000.0001) %MON time_tsnumber                =                  3152
(PID.TID 0000.0001) %MON time_secondsf                =   1.7020800000000E+07
(PID.TID 0000.0001) %MON dynstat_eta_max              =   5.6740389606489E-09
(PID.TID 0000.0001) %MON dynstat_eta_min              =  -2.1867095655838E-09
(PID.TID 0000.0001) %MON dynstat_eta_mean             =   3.9208855247919E-13
(PID.TID 0000.0001) %MON dynstat_eta_sd               =   1.7517188282850E-09
(PID.TID 0000.0001) %MON dynstat_eta_del2             =   1.4818352720722E-14
(PID.TID 0000.0001) %MON dynstat_uvel_max             =   1.6814973333913E-09
(PID.TID 0000.0001) %MON dynstat_uvel_min             =  -2.4782267284042E-09
(PID.TID 0000.0001) %MON dynstat_uvel_mean            =  -1.8350733772241E-13
(PID.TID 0000.0001) %MON dynstat_uvel_sd              =   8.2840567351430E-10
(PID.TID 0000.0001) %MON dynstat_uvel_del2            =   4.9910537312354E-14
(PID.TID 0000.0001) %MON dynstat_vvel_max             =   4.3076200760294E-09
(PID.TID 0000.0001) %MON dynstat_vvel_min             =  -3.6410654299715E-09
(PID.TID 0000.0001) %MON dynstat_vvel_mean            =  -1.3184828645985E-14
(PID.TID 0000.0001) %MON dynstat_vvel_sd              =   1.3539172182176E-09
(PID.TID 0000.0001) %MON dynstat_vvel_del2            =   6.5979753764879E-14
(PID.TID 0000.0001) %MON dynstat_wvel_max             =   9.9789363339209E-15
(PID.TID 0000.0001) %MON dynstat_wvel_min             =  -9.8296134562470E-15
(PID.TID 0000.0001) %MON dynstat_wvel_mean            =   2.5654099112330E-28
(PID.TID 0000.0001) %MON dynstat_wvel_sd              =   4.3760091749789E-15
(PID.TID 0000.0001) %MON dynstat_wvel_del2            =   2.7486210149848E-20
(PID.TID 0000.0001) %MON dynstat_theta_max            =   2.0000000000000E+01
(PID.TID 0000.0001) %MON dynstat_theta_min            =   2.0000000000000E+01
(PID.TID 0000.0001) %MON dynstat_theta_mean           =   2.0000000000000E+01
(PID.TID 0000.0001) %MON dynstat_theta_sd             =   0.0000000000000E+00
(PID.TID 0000.0001) %MON dynstat_theta_del2           =   0.0000000000000E+00
(PID.TID 0000.0001) %MON dynstat_salt_max             =   3.0000000000000E+01
(PID.TID 0000.0001) %MON dynstat_salt_min             =   3.0000000000000E+01
(PID.TID 0000.0001) %MON dynstat_salt_mean            =   3.0000000000000E+01
(PID.TID 0000.0001) %MON dynstat_salt_sd              =   0.0000000000000E+00
(PID.TID 0000.0001) %MON dynstat_salt_del2            =   0.0000000000000E+00
(PID.TID 0000.0001) %MON trAdv_CFL_u_max              =   2.6620875777526E-09
(PID.TID 0000.0001) %MON trAdv_CFL_v_max              =   4.6703619538301E-09
(PID.TID 0000.0001) %MON trAdv_CFL_w_max              =   1.0848102018679E-14
(PID.TID 0000.0001) %MON advcfl_uvel_max              =   2.6764848666765E-09
(PID.TID 0000.0001) %MON advcfl_vvel_max              =   4.6522296821117E-09
(PID.TID 0000.0001) %MON advcfl_wvel_max              =   2.1554502481269E-14
(PID.TID 0000.0001) %MON advcfl_W_hf_max              =   0.0000000000000E+00
(PID.TID 0000.0001) %MON pe_b_mean                    =   3.0102171459665E-21
(PID.TID 0000.0001) %MON ke_max                       =   9.7495049237953E-18
(PID.TID 0000.0001) %MON ke_mean                      =   1.2545532881070E-18
(PID.TID 0000.0001) %MON ke_vol                       =   7.5645000000000E+15
(PID.TID 0000.0001) %MON vort_r_min                   =  -1.3949018266303E-13
(PID.TID 0000.0001) %MON vort_r_max                   =   1.3635650439265E-13
(PID.TID 0000.0001) %MON vort_a_mean                  =   8.2299999999999E-05
(PID.TID 0000.0001) %MON vort_a_sd                    =   7.1297555115728E-06
(PID.TID 0000.0001) %MON vort_p_mean                  =   8.3303658536584E-05
(PID.TID 0000.0001) %MON vort_p_sd                    =   1.7411470229950E-05
(PID.TID 0000.0001) %MON surfExpan_theta_mean         =   5.1065096398359E-27
(PID.TID 0000.0001) %MON surfExpan_salt_mean          =   7.6600248010325E-27
(PID.TID 0000.0001) // =======================================================
(PID.TID 0000.0001) // End MONITOR dynamic field statistics
(PID.TID 0000.0001) // =======================================================
 cg2d: Sum(rhs),rhsMax =  -1.25623833389842E-02  3.23865599147695E-10
 cg2d: Sum(rhs),rhsMax =  -1.25245966893715E-02  3.24842665671149E-10
 cg2d: Sum(rhs),rhsMax =  -1.24886879631721E-02  3.25776634112538E-10
 cg2d: Sum(rhs),rhsMax =  -1.24546354128393E-02  3.26667245220773E-10
 cg2d: Sum(rhs),rhsMax =  -1.24224893678070E-02  3.27514247280032E-10
 cg2d: Sum(rhs),rhsMax =  -1.23921045443377E-02  3.28317399806554E-10
 cg2d: Sum(rhs),rhsMax =  -1.23635222412515E-02  3.29076464680270E-10
 cg2d: Sum(rhs),rhsMax =  -1.23367282181757E-02  3.29791217815217E-10
 cg2d: Sum(rhs),rhsMax =  -1.23117085595221E-02  3.30461440671369E-10
 cg2d: Sum(rhs),rhsMax =  -1.22884503117339E-02  3.31086923789912E-10
 cg2d: Sum(rhs),rhsMax =  -1.22669415761049E-02  3.31667466123672E-10
 cg2d: Sum(rhs),rhsMax =  -1.22471716053734E-02  3.32202875152652E-10
 cg2d: Sum(rhs),rhsMax =  -1.22290005061654E-02  3.32696509802597E-10
 cg2d: Sum(rhs),rhsMax =  -1.22125579528001E-02  3.33144450618007E-10
 cg2d: Sum(rhs),rhsMax =  -1.21978367357702E-02  3.33546522291433E-10
 cg2d: Sum(rhs),rhsMax =  -1.21848303978132E-02  3.33902565286703E-10
(PID.TID 0000.0001)      cg2d_init_res =   3.19354944243932E-01
(PID.TID 0000.0001)      cg2d_iters(min,last) =      -1     549
(PID.TID 0000.0001)      cg2d_last_res =   9.96778313836754E-08
(PID.TID 0000.0001) // =======================================================
(PID.TID 0000.0001) // Begin MONITOR dynamic field statistics
(PID.TID 0000.0001) // =======================================================
(PID.TID 0000.0001) %MON time_tsnumber                =                  3168
(PID.TID 0000.0001) %MON time_secondsf                =   1.7107200000000E+07
(PID.TID 0000.0001) %MON dynstat_eta_max              =   5.6848208969935E-09
(PID.TID 0000.0001) %MON dynstat_eta_min              =  -2.4849454058643E-09
(PID.TID 0000.0001) %MON dynstat_eta_mean             =   3.9209071297306E-13
(PID.TID 0000.0001) %MON dynstat_eta_sd               =   1.7485671122320E-09
(PID.TID 0000.0001) %MON dynstat_eta_del2             =   1.4943111183293E-14
(PID.TID 0000.0001) %MON dynstat_uvel_max             =   1.6243750063462E-09
(PID.TID 0000.0001) %MON dynstat_uvel_min             =  -2.6634467617213E-09
(PID.TID 0000.0001) %MON dynstat_uvel_mean            =  -1.8657353280090E-13
(PID.TID 0000.0001) %MON dynstat_uvel_sd              =   8.2327189446473E-10
(PID.TID 0000.0001) %MON dynstat_uvel_del2            =   4.8996446448724E-14
(PID.TID 0000.0001) %MON dynstat_vvel_max             =   4.0038489969675E-09
(PID.TID 0000.0001) %MON dynstat_vvel_min             =  -3.8751782016931E-09
(PID.TID 0000.0001) %MON dynstat_vvel_mean            =  -7.0654936424355E-15
(PID.TID 0000.0001) %MON dynstat_vvel_sd              =   1.3447999419371E-09
(PID.TID 0000.0001) %MON dynstat_vvel_del2            =   6.7803651369609E-14
(PID.TID 0000.0001) %MON dynstat_wvel_max             =   8.8710183970830E-15
(PID.TID 0000.0001) %MON dynstat_wvel_min             =  -1.0499676082465E-14
(PID.TID 0000.0001) %MON dynstat_wvel_mean            =   6.1619783764993E-29
(PID.TID 0000.0001) %MON dynstat_wvel_sd              =   4.3781861037963E-15
(PID.TID 0000.0001) %MON dynstat_wvel_del2            =   2.7335684668870E-20
(PID.TID 0000.0001) %MON dynstat_theta_max            =   2.0000000000000E+01
(PID.TID 0000.0001) %MON dynstat_theta_min            =   2.0000000000000E+01
(PID.TID 0000.0001) %MON dynstat_theta_mean           =   2.0000000000000E+01
(PID.TID 0000.0001) %MON dynstat_theta_sd             =   0.0000000000000E+00
(PID.TID 0000.0001) %MON dynstat_theta_del2           =   0.0000000000000E+00
(PID.TID 0000.0001) %MON dynstat_salt_max             =   3.0000000000000E+01
(PID.TID 0000.0001) %MON dynstat_salt_min             =   3.0000000000000E+01
(PID.TID 0000.0001) %MON dynstat_salt_mean            =   3.0000000000000E+01
(PID.TID 0000.0001) %MON dynstat_salt_sd              =   0.0000000000000E+00
(PID.TID 0000.0001) %MON dynstat_salt_del2            =   0.0000000000000E+00
(PID.TID 0000.0001) %MON trAdv_CFL_u_max              =   2.8657781219950E-09
(PID.TID 0000.0001) %MON trAdv_CFL_v_max              =   4.3461994834095E-09
(PID.TID 0000.0001) %MON trAdv_CFL_w_max              =   9.6587328069608E-15
(PID.TID 0000.0001) %MON advcfl_uvel_max              =   2.8765225026590E-09
(PID.TID 0000.0001) %MON advcfl_vvel_max              =   4.3241569167249E-09
(PID.TID 0000.0001) %MON advcfl_wvel_max              =   2.2679300338124E-14
(PID.TID 0000.0001) %MON advcfl_W_hf_max              =   0.0000000000000E+00
(PID.TID 0000.0001) %MON pe_b_mean                    =   2.9993948448200E-21
(PID.TID 0000.0001) %MON ke_max                       =   8.4604592608025E-18
(PID.TID 0000.0001) %MON ke_mean                      =   1.2380783842942E-18
(PID.TID 0000.0001) %MON ke_vol                       =   7.5645000000000E+15
(PID.TID 0000.0001) %MON vort_r_min                   =  -1.4807450229053E-13
(PID.TID 0000.0001) %MON vort_r_max                   =   1.4030958656631E-13
(PID.TID 0000.0001) %MON vort_a_mean                  =   8.2300000000000E-05
(PID.TID 0000.0001) %MON vort_a_sd                    =   7.1297555115588E-06
(PID.TID 0000.0001) %MON vort_p_mean                  =   8.3303658536585E-05
(PID.TID 0000.0001) %MON vort_p_sd                    =   1.7411470229921E-05
(PID.TID 0000.0001) %MON surfExpan_theta_mean         =   1.2339191230382E-27
(PID.TID 0000.0001) %MON surfExpan_salt_mean          =   1.8497298236889E-27
(PID.TID 0000.0001) // =======================================================
(PID.TID 0000.0001) // End MONITOR dynamic field statistics
(PID.TID 0000.0001) // =======================================================
 cg2d: Sum(rhs),rhsMax =  -1.21735335726957E-02  3.34212429039117E-10
 cg2d: Sum(rhs),rhsMax =  -1.21639419348825E-02  3.34475971797267E-10
 cg2d: Sum(rhs),rhsMax =  -1.21560523576434E-02  3.34693060838930E-10
 cg2d: Sum(rhs),rhsMax =  -1.21498627286720E-02  3.34863572095518E-10
 cg2d: Sum(rhs),rhsMax =  -1.21453720632585E-02  3.34987390584258E-10
 cg2d: Sum(rhs),rhsMax =  -1.21425804352213E-02  3.35064410245900E-10
 cg2d: Sum(rhs),rhsMax =  -1.21414890252825E-02  3.35094534013506E-10
 cg2d: Sum(rhs),rhsMax =  -1.21421001001200E-02  3.35077673836988E-10
 cg2d: Sum(rhs),rhsMax =  -1.21444170462162E-02  3.35013750707990E-10
 cg2d: Sum(rhs),rhsMax =  -1.21484443507228E-02  3.34902694683011E-10
 cg2d: Sum(rhs),rhsMax =  -1.21541876404179E-02  3.34744444890954E-10
 cg2d: Sum(rhs),rhsMax =  -1.21616536499836E-02  3.34538949592650E-10
 cg2d: Sum(rhs),rhsMax =  -1.21708502721317E-02  3.34286166138207E-10
 cg2d: Sum(rhs),rhsMax =  -1.21817865804840E-02  3.33986061026487E-10
 cg2d: Sum(rhs),rhsMax =  -1.21944728021281E-02  3.33638609901882E-10
 cg2d: Sum(rhs),rhsMax =  -1.22089203782997E-02  3.33243797566940E-10
(PID.TID 0000.0001)      cg2d_init_res =   3.17963889822194E-01
(PID.TID 0000.0001)      cg2d_iters(min,last) =      -1     550
(PID.TID 0000.0001)      cg2d_last_res =   9.32191988333623E-08
(PID.TID 0000.0001) // =======================================================
(PID.TID 0000.0001) // Begin MONITOR dynamic field statistics
(PID.TID 0000.0001) // =======================================================
(PID.TID 0000.0001) %MON time_tsnumber                =                  3184
(PID.TID 0000.0001) %MON time_secondsf                =   1.7193600000000E+07
(PID.TID 0000.0001) %MON dynstat_eta_max              =   5.5903440275191E-09
(PID.TID 0000.0001) %MON dynstat_eta_min              =  -2.7499194303018E-09
(PID.TID 0000.0001) %MON dynstat_eta_mean             =   3.9209079020558E-13
(PID.TID 0000.0001) %MON dynstat_eta_sd               =   1.7471814967981E-09
(PID.TID 0000.0001) %MON dynstat_eta_del2             =   1.5076033089658E-14
(PID.TID 0000.0001) %MON dynstat_uvel_max             =   1.6239756532725E-09
(PID.TID 0000.0001) %MON dynstat_uvel_min             =  -2.7876838746750E-09
(PID.TID 0000.0001) %MON dynstat_uvel_mean            =  -1.7917074881336E-13
(PID.TID 0000.0001) %MON dynstat_uvel_sd              =   8.0965713772761E-10
(PID.TID 0000.0001) %MON dynstat_uvel_del2            =   4.8346156789544E-14
(PID.TID 0000.0001) %MON dynstat_vvel_max             =   3.6541818215806E-09
(PID.TID 0000.0001) %MON dynstat_vvel_min             =  -4.0643915791499E-09
(PID.TID 0000.0001) %MON dynstat_vvel_mean            =  -8.1628197844599E-16
(PID.TID 0000.0001) %MON dynstat_vvel_sd              =   1.3405090885647E-09
(PID.TID 0000.0001) %MON dynstat_vvel_del2            =   6.8688609303075E-14
(PID.TID 0000.0001) %MON dynstat_wvel_max             =   7.7064572737151E-15
(PID.TID 0000.0001) %MON dynstat_wvel_min             =  -1.1187101772725E-14
(PID.TID 0000.0001) %MON dynstat_wvel_mean            =   3.3499045073821E-28
(PID.TID 0000.0001) %MON dynstat_wvel_sd              =   4.3722356903699E-15
(PID.TID 0000.0001) %MON dynstat_wvel_del2            =   2.7121538974955E-20
(PID.TID 0000.0001) %MON dynstat_theta_max            =   2.0000000000000E+01
(PID.TID 0000.0001) %MON dynstat_theta_min            =   2.0000000000000E+01
(PID.TID 0000.0001) %MON dynstat_theta_mean           =   2.0000000000000E+01
(PID.TID 0000.0001) %MON dynstat_theta_sd             =   0.0000000000000E+00
(PID.TID 0000.0001) %MON dynstat_theta_del2           =   0.0000000000000E+00
(PID.TID 0000.0001) %MON dynstat_salt_max             =   3.0000000000000E+01
(PID.TID 0000.0001) %MON dynstat_salt_min             =   3.0000000000000E+01
(PID.TID 0000.0001) %MON dynstat_salt_mean            =   3.0000000000000E+01
(PID.TID 0000.0001) %MON dynstat_salt_sd              =   0.0000000000000E+00
(PID.TID 0000.0001) %MON dynstat_salt_del2            =   0.0000000000000E+00
(PID.TID 0000.0001) %MON trAdv_CFL_u_max              =   3.0044578498632E-09
(PID.TID 0000.0001) %MON trAdv_CFL_v_max              =   4.3777438208920E-09
(PID.TID 0000.0001) %MON trAdv_CFL_w_max              =   8.4005155988387E-15
(PID.TID 0000.0001) %MON advcfl_uvel_max              =   3.0106985846490E-09
(PID.TID 0000.0001) %MON advcfl_vvel_max              =   4.3895429054819E-09
(PID.TID 0000.0001) %MON advcfl_wvel_max              =   2.4164139829086E-14
(PID.TID 0000.0001) %MON advcfl_W_hf_max              =   0.0000000000000E+00
(PID.TID 0000.0001) %MON pe_b_mean                    =   2.9946431130957E-21
(PID.TID 0000.0001) %MON ke_max                       =   8.7404597878657E-18
(PID.TID 0000.0001) %MON ke_mean                      =   1.2212698895908E-18
(PID.TID 0000.0001) %MON ke_vol                       =   7.5645000000000E+15
(PID.TID 0000.0001) %MON vort_r_min                   =  -1.5177067164261E-13
(PID.TID 0000.0001) %MON vort_r_max                   =   1.4061233984837E-13
(PID.TID 0000.0001) %MON vort_a_mean                  =   8.2299999999999E-05
(PID.TID 0000.0001) %MON vort_a_sd                    =   7.1297555115732E-06
(PID.TID 0000.0001) %MON vort_p_mean                  =   8.3303658536585E-05
(PID.TID 0000.0001) %MON vort_p_sd                    =   1.7411470229894E-05
(PID.TID 0000.0001) %MON surfExpan_theta_mean         =   6.6794957045383E-27
(PID.TID 0000.0001) %MON surfExpan_salt_mean          =   1.0022855932017E-26
(PID.TID 0000.0001) // =======================================================
(PID.TID 0000.0001) // End MONITOR dynamic field statistics
(PID.TID 0000.0001) // =======================================================
 cg2d: Sum(rhs),rhsMax =  -1.22251419675505E-02  3.32801617991859E-10
 cg2d: Sum(rhs),rhsMax =  -1.22431514680711E-02  3.32312074321788E-10
 cg2d: Sum(rhs),rhsMax =  -1.22629640488353E-02  3.31775178880983E-10
 cg2d: Sum(rhs),rhsMax =  -1.22845961968106E-02  3.31190953175563E-10
 cg2d: Sum(rhs),rhsMax =  -1.23080656985904E-02  3.30559427894482E-10
 cg2d: Sum(rhs),rhsMax =  -1.23333917108291E-02  3.29880642909821E-10
 cg2d: Sum(rhs),rhsMax =  -1.23605947869735E-02  3.29154647275070E-10
 cg2d: Sum(rhs),rhsMax =  -1.23896969146598E-02  3.28381499220621E-10
 cg2d: Sum(rhs),rhsMax =  -1.24207215467249E-02  3.27561266147349E-10
 cg2d: Sum(rhs),rhsMax =  -1.24536936699558E-02  3.26694024617406E-10
 cg2d: Sum(rhs),rhsMax =  -1.24886398110370E-02  3.25779860343637E-10
 cg2d: Sum(rhs),rhsMax =  -1.25255881366850E-02  3.24818868176860E-10
 cg2d: Sum(rhs),rhsMax =  -1.25645684633460E-02  3.23811152092056E-10
 cg2d: Sum(rhs),rhsMax =  -1.26055292935451E-02  3.22758951490919E-10
 cg2d: Sum(rhs),rhsMax =  -1.26485125968856E-02  3.21662125193665E-10
 cg2d: Sum(rhs),rhsMax =  -1.26641567173254E-02  3.21264775830203E-10
(PID.TID 0000.0001)      cg2d_init_res =   3.28235777660204E-01
(PID.TID 0000.0001)      cg2d_iters(min,last) =      -1     550
(PID.TID 0000.0001)      cg2d_last_res =   9.86109050376934E-08
(PID.TID 0000.0001) // =======================================================
(PID.TID 0000.0001) // Begin MONITOR dynamic field statistics
(PID.TID 0000.0001) // =======================================================
(PID.TID 0000.0001) %MON time_tsnumber                =                  3200
(PID.TID 0000.0001) %MON time_secondsf                =   1.7280000000000E+07
(PID.TID 0000.0001) %MON dynstat_eta_max              =   5.3899786182779E-09
(PID.TID 0000.0001) %MON dynstat_eta_min              =  -3.1096130842400E-09
(PID.TID 0000.0001) %MON dynstat_eta_mean             =   3.9209083535686E-13
(PID.TID 0000.0001) %MON dynstat_eta_sd               =   1.7473878517249E-09
(PID.TID 0000.0001) %MON dynstat_eta_del2             =   1.5198429676962E-14
(PID.TID 0000.0001) %MON dynstat_uvel_max             =   1.6374685372899E-09
(PID.TID 0000.0001) %MON dynstat_uvel_min             =  -2.8477285183638E-09
(PID.TID 0000.0001) %MON dynstat_uvel_mean            =  -1.6167474305146E-13
(PID.TID 0000.0001) %MON dynstat_uvel_sd              =   7.8926788441531E-10
(PID.TID 0000.0001) %MON dynstat_uvel_del2            =   4.8255714003310E-14
(PID.TID 0000.0001) %MON dynstat_vvel_max             =   3.2713512308635E-09
(PID.TID 0000.0001) %MON dynstat_vvel_min             =  -4.1948623147067E-09
(PID.TID 0000.0001) %MON dynstat_vvel_mean            =   5.3392689503282E-15
(PID.TID 0000.0001) %MON dynstat_vvel_sd              =   1.3398841289993E-09
(PID.TID 0000.0001) %MON dynstat_vvel_del2            =   6.8594355652635E-14
(PID.TID 0000.0001) %MON dynstat_wvel_max             =   6.7804856618281E-15
(PID.TID 0000.0001) %MON dynstat_wvel_min             =  -1.1738676607975E-14
(PID.TID 0000.0001) %MON dynstat_wvel_mean            =   2.6113160176688E-28
(PID.TID 0000.0001) %MON dynstat_wvel_sd              =   4.3591759576663E-15
(PID.TID 0000.0001) %MON dynstat_wvel_del2            =   2.6907295442201E-20
(PID.TID 0000.0001) %MON dynstat_theta_max            =   2.0000000000000E+01
(PID.TID 0000.0001) %MON dynstat_theta_min            =   2.0000000000000E+01
(PID.TID 0000.0001) %MON dynstat_theta_mean           =   2.0000000000000E+01
(PID.TID 0000.0001) %MON dynstat_theta_sd             =   0.0000000000000E+00
(PID.TID 0000.0001) %MON dynstat_theta_del2           =   0.0000000000000E+00
(PID.TID 0000.0001) %MON dynstat_salt_max             =   3.0000000000000E+01
(PID.TID 0000.0001) %MON dynstat_salt_min             =   3.0000000000000E+01
(PID.TID 0000.0001) %MON dynstat_salt_mean            =   3.0000000000000E+01
(PID.TID 0000.0001) %MON dynstat_salt_sd              =   0.0000000000000E+00
(PID.TID 0000.0001) %MON dynstat_salt_del2            =   0.0000000000000E+00
(PID.TID 0000.0001) %MON trAdv_CFL_u_max              =   3.0736338742889E-09
(PID.TID 0000.0001) %MON trAdv_CFL_v_max              =   4.5240608041744E-09
(PID.TID 0000.0001) %MON trAdv_CFL_w_max              =   7.3679683074701E-15
(PID.TID 0000.0001) %MON advcfl_uvel_max              =   3.0755467998330E-09
(PID.TID 0000.0001) %MON advcfl_vvel_max              =   4.5304512998832E-09
(PID.TID 0000.0001) %MON advcfl_wvel_max              =   2.5355541473226E-14
(PID.TID 0000.0001) %MON advcfl_W_hf_max              =   0.0000000000000E+00
(PID.TID 0000.0001) %MON pe_b_mean                    =   2.9953505333871E-21
(PID.TID 0000.0001) %MON ke_max                       =   9.1625415754153E-18
(PID.TID 0000.0001) %MON ke_mean                      =   1.2042015410098E-18
(PID.TID 0000.0001) %MON ke_vol                       =   7.5645000000000E+15
(PID.TID 0000.0001) %MON vort_r_min                   =  -1.5024875133624E-13
(PID.TID 0000.0001) %MON vort_r_max                   =   1.3736529969849E-13
(PID.TID 0000.0001) %MON vort_a_mean                  =   8.2300000000000E-05
(PID.TID 0000.0001) %MON vort_a_sd                    =   7.1297555115551E-06
(PID.TID 0000.0001) %MON vort_p_mean                  =   8.3303658536585E-05
(PID.TID 0000.0001) %MON vort_p_sd                    =   1.7411470229845E-05
(PID.TID 0000.0001) %MON surfExpan_theta_mean         =   5.2186478664679E-27
(PID.TID 0000.0001) %MON surfExpan_salt_mean          =   7.8247290111298E-27
(PID.TID 0000.0001) // =======================================================
(PID.TID 0000.0001) // End MONITOR dynamic field statistics
(PID.TID 0000.0001) // =======================================================
 cg2d: Sum(rhs),rhsMax =  -1.25769836007893E-02  3.23491516301510E-10
 cg2d: Sum(rhs),rhsMax =  -1.24922391864998E-02  3.25686008698222E-10
 cg2d: Sum(rhs),rhsMax =  -1.24098710142852E-02  3.27847690030902E-10
 cg2d: Sum(rhs),rhsMax =  -1.23298286293978E-02  3.29976003023863E-10
 cg2d: Sum(rhs),rhsMax =  -1.22520635409558E-02  3.32070396246432E-10
 cg2d: Sum(rhs),rhsMax =  -1.21765291163640E-02  3.34130324242639E-10
 cg2d: Sum(rhs),rhsMax =  -1.21031805261669E-02  3.36155247659756E-10
 cg2d: Sum(rhs),rhsMax =  -1.20319746992682E-02  3.38144633375430E-10
 cg2d: Sum(rhs),rhsMax =  -1.19628702461155E-02  3.40097954623388E-10
 cg2d: Sum(rhs),rhsMax =  -1.18958273866984E-02  3.42014691117806E-10
 cg2d: Sum(rhs),rhsMax =  -1.18308079141628E-02  3.43894329176477E-10
 cg2d: Sum(rhs),rhsMax =  -1.17677751836124E-02  3.45736361842612E-10
 cg2d: Sum(rhs),rhsMax =  -1.17066939647207E-02  3.47540289005441E-10
 cg2d: Sum(rhs),rhsMax =  -1.16475304805332E-02  3.49305617519254E-10
 cg2d: Sum(rhs),rhsMax =  -1.15902523385951E-02  3.51031861320366E-10
 cg2d: Sum(rhs),rhsMax =  -1.15348284661724E-02  3.52718541542806E-10
(PID.TID 0000.0001)      cg2d_init_res =   2.98505847068584E-01
(PID.TID 0000.0001)      cg2d_iters(min,last) =      -1     550
(PID.TID 0000.0001)      cg2d_last_res =   9.14728463583525E-08
(PID.TID 0000.0001) // =======================================================
(PID.TID 0000.0001) // Begin MONITOR dynamic field statistics
(PID.TID 0000.0001) // =======================================================
(PID.TID 0000.0001) %MON time_tsnumber                =                  3216
(PID.TID 0000.0001) %MON time_secondsf                =   1.7366400000000E+07
(PID.TID 0000.0001) %MON dynstat_eta_max              =   5.0878114755915E-09
(PID.TID 0000.0001) %MON dynstat_eta_min              =  -3.5582615379226E-09
(PID.TID 0000.0001) %MON dynstat_eta_mean             =   3.9209087405741E-13
(PID.TID 0000.0001) %MON dynstat_eta_sd               =   1.7485328847858E-09
(PID.TID 0000.0001) %MON dynstat_eta_del2             =   1.5291721724784E-14
(PID.TID 0000.0001) %MON dynstat_uvel_max             =   1.6329048168834E-09
(PID.TID 0000.0001) %MON dynstat_uvel_min             =  -2.8424332171388E-09
(PID.TID 0000.0001) %MON dynstat_uvel_mean            =  -1.3502232822380E-13
(PID.TID 0000.0001) %MON dynstat_uvel_sd              =   7.6523669289767E-10
(PID.TID 0000.0001) %MON dynstat_uvel_del2            =   4.8900627883031E-14
(PID.TID 0000.0001) %MON dynstat_vvel_max             =   3.1959721996726E-09
(PID.TID 0000.0001) %MON dynstat_vvel_min             =  -4.2666328963776E-09
(PID.TID 0000.0001) %MON dynstat_vvel_mean            =   1.1185789047109E-14
(PID.TID 0000.0001) %MON dynstat_vvel_sd              =   1.3409230263934E-09
(PID.TID 0000.0001) %MON dynstat_vvel_del2            =   6.7580645831869E-14
(PID.TID 0000.0001) %MON dynstat_wvel_max             =   6.2024565569696E-15
(PID.TID 0000.0001) %MON dynstat_wvel_min             =  -1.2109986446962E-14
(PID.TID 0000.0001) %MON dynstat_wvel_mean            =   1.2277696313685E-28
(PID.TID 0000.0001) %MON dynstat_wvel_sd              =   4.3415785555103E-15
(PID.TID 0000.0001) %MON dynstat_wvel_del2            =   2.6731676311574E-20
(PID.TID 0000.0001) %MON dynstat_theta_max            =   2.0000000000000E+01
(PID.TID 0000.0001) %MON dynstat_theta_min            =   2.0000000000000E+01
(PID.TID 0000.0001) %MON dynstat_theta_mean           =   2.0000000000000E+01
(PID.TID 0000.0001) %MON dynstat_theta_sd             =   0.0000000000000E+00
(PID.TID 0000.0001) %MON dynstat_theta_del2           =   0.0000000000000E+00
(PID.TID 0000.0001) %MON dynstat_salt_max             =   3.0000000000000E+01
(PID.TID 0000.0001) %MON dynstat_salt_min             =   3.0000000000000E+01
(PID.TID 0000.0001) %MON dynstat_salt_mean            =   3.0000000000000E+01
(PID.TID 0000.0001) %MON dynstat_salt_sd              =   0.0000000000000E+00
(PID.TID 0000.0001) %MON dynstat_salt_del2            =   0.0000000000000E+00
(PID.TID 0000.0001) %MON trAdv_CFL_u_max              =   3.0720372254540E-09
(PID.TID 0000.0001) %MON trAdv_CFL_v_max              =   4.6051887702333E-09
(PID.TID 0000.0001) %MON trAdv_CFL_w_max              =   6.7350886375994E-15
(PID.TID 0000.0001) %MON advcfl_uvel_max              =   3.0698278745099E-09
(PID.TID 0000.0001) %MON advcfl_vvel_max              =   4.6079635280878E-09
(PID.TID 0000.0001) %MON advcfl_wvel_max              =   2.6157570725438E-14
(PID.TID 0000.0001) %MON advcfl_W_hf_max              =   0.0000000000000E+00
(PID.TID 0000.0001) %MON pe_b_mean                    =   2.9992774222573E-21
(PID.TID 0000.0001) %MON ke_max                       =   9.3486673245737E-18
(PID.TID 0000.0001) %MON ke_mean                      =   1.1869860476019E-18
(PID.TID 0000.0001) %MON ke_vol                       =   7.5645000000000E+15
(PID.TID 0000.0001) %MON vort_r_min                   =  -1.4346967205064E-13
(PID.TID 0000.0001) %MON vort_r_max                   =   1.4184285155987E-13
(PID.TID 0000.0001) %MON vort_a_mean                  =   8.2299999999999E-05
(PID.TID 0000.0001) %MON vort_a_sd                    =   7.1297555115765E-06
(PID.TID 0000.0001) %MON vort_p_mean                  =   8.3303658536584E-05
(PID.TID 0000.0001) %MON vort_p_sd                    =   1.7411470229804E-05
(PID.TID 0000.0001) %MON surfExpan_theta_mean         =   2.5179861349557E-27
(PID.TID 0000.0001) %MON surfExpan_salt_mean          =   3.7886245757583E-27
(PID.TID 0000.0001) // =======================================================
(PID.TID 0000.0001) // End MONITOR dynamic field statistics
(PID.TID 0000.0001) // =======================================================
 cg2d: Sum(rhs),rhsMax =  -1.14812291129939E-02  3.54365186632152E-10
 cg2d: Sum(rhs),rhsMax =  -1.14294257612188E-02  3.55971332458347E-10
 cg2d: Sum(rhs),rhsMax =  -1.13793911566454E-02  3.57536522426522E-10
 cg2d: Sum(rhs),rhsMax =  -1.13310991996547E-02  3.59060307586507E-10
 cg2d: Sum(rhs),rhsMax =  -1.12845249713084E-02  3.60542246740806E-10
 cg2d: Sum(rhs),rhsMax =  -1.12396446794068E-02  3.61981906550494E-10
 cg2d: Sum(rhs),rhsMax =  -1.11964356214384E-02  3.63378861639640E-10
 cg2d: Sum(rhs),rhsMax =  -1.11548761901656E-02  3.64732694697857E-10
 cg2d: Sum(rhs),rhsMax =  -1.11149458225934E-02  3.66042996581502E-10
 cg2d: Sum(rhs),rhsMax =  -1.10766249630583E-02  3.67309366412635E-10
 cg2d: Sum(rhs),rhsMax =  -1.10398950827436E-02  3.68531411676337E-10
 cg2d: Sum(rhs),rhsMax =  -1.10047386416535E-02  3.69708748337352E-10
 cg2d: Sum(rhs),rhsMax =  -1.09711390206179E-02  3.70841000872522E-10
 cg2d: Sum(rhs),rhsMax =  -1.09390805809647E-02  3.71927802421579E-10
 cg2d: Sum(rhs),rhsMax =  -1.09085486160339E-02  3.72968794824775E-10
 cg2d: Sum(rhs),rhsMax =  -1.08795293013550E-02  3.73963628846925E-10
(PID.TID 0000.0001)      cg2d_init_res =   2.82431150709421E-01
(PID.TID 0000.0001)      cg2d_iters(min,last) =      -1     548
(PID.TID 0000.0001)      cg2d_last_res =   9.97777996816112E-08
(PID.TID 0000.0001) // =======================================================
(PID.TID 0000.0001) // Begin MONITOR dynamic field statistics
(PID.TID 0000.0001) // =======================================================
(PID.TID 0000.0001) %MON time_tsnumber                =                  3232
(PID.TID 0000.0001) %MON time_secondsf                =   1.7452800000000E+07
(PID.TID 0000.0001) %MON dynstat_eta_max              =   4.6951679960442E-09
(PID.TID 0000.0001) %MON dynstat_eta_min              =  -3.9748058159058E-09
(PID.TID 0000.0001) %MON dynstat_eta_mean             =   3.9209091172011E-13
(PID.TID 0000.0001) %MON dynstat_eta_sd               =   1.7496837944322E-09
(PID.TID 0000.0001) %MON dynstat_eta_del2             =   1.5339702715482E-14
(PID.TID 0000.0001) %MON dynstat_uvel_max             =   1.6118506167876E-09
(PID.TID 0000.0001) %MON dynstat_uvel_min             =  -2.7768838834077E-09
(PID.TID 0000.0001) %MON dynstat_uvel_mean            =  -1.0065692452628E-13
(PID.TID 0000.0001) %MON dynstat_uvel_sd              =   7.4178011735988E-10
(PID.TID 0000.0001) %MON dynstat_uvel_del2            =   5.0272540524476E-14
(PID.TID 0000.0001) %MON dynstat_vvel_max             =   3.3106296669718E-09
(PID.TID 0000.0001) %MON dynstat_vvel_min             =  -4.2823791074382E-09
(PID.TID 0000.0001) %MON dynstat_vvel_mean            =   1.6526021263746E-14
(PID.TID 0000.0001) %MON dynstat_vvel_sd              =   1.3412085710089E-09
(PID.TID 0000.0001) %MON dynstat_vvel_del2            =   6.5816799004235E-14
(PID.TID 0000.0001) %MON dynstat_wvel_max             =   5.6711750098803E-15
(PID.TID 0000.0001) %MON dynstat_wvel_min             =  -1.2286427401587E-14
(PID.TID 0000.0001) %MON dynstat_wvel_mean            =   3.3535061167801E-28
(PID.TID 0000.0001) %MON dynstat_wvel_sd              =   4.3228934920580E-15
(PID.TID 0000.0001) %MON dynstat_wvel_del2            =   2.6631817618435E-20
(PID.TID 0000.0001) %MON dynstat_theta_max            =   2.0000000000000E+01
(PID.TID 0000.0001) %MON dynstat_theta_min            =   2.0000000000000E+01
(PID.TID 0000.0001) %MON dynstat_theta_mean           =   2.0000000000000E+01
(PID.TID 0000.0001) %MON dynstat_theta_sd             =   0.0000000000000E+00
(PID.TID 0000.0001) %MON dynstat_theta_del2           =   0.0000000000000E+00
(PID.TID 0000.0001) %MON dynstat_salt_max             =   3.0000000000000E+01
(PID.TID 0000.0001) %MON dynstat_salt_min             =   3.0000000000000E+01
(PID.TID 0000.0001) %MON dynstat_salt_mean            =   3.0000000000000E+01
(PID.TID 0000.0001) %MON dynstat_salt_sd              =   0.0000000000000E+00
(PID.TID 0000.0001) %MON dynstat_salt_del2            =   0.0000000000000E+00
(PID.TID 0000.0001) %MON trAdv_CFL_u_max              =   3.0050952242337E-09
(PID.TID 0000.0001) %MON trAdv_CFL_v_max              =   4.6257554234178E-09
(PID.TID 0000.0001) %MON trAdv_CFL_w_max              =   6.1611525919103E-15
(PID.TID 0000.0001) %MON advcfl_uvel_max              =   2.9990345940803E-09
(PID.TID 0000.0001) %MON advcfl_vvel_max              =   4.6249694360333E-09
(PID.TID 0000.0001) %MON advcfl_wvel_max              =   2.6538683187427E-14
(PID.TID 0000.0001) %MON advcfl_W_hf_max              =   0.0000000000000E+00
(PID.TID 0000.0001) %MON pe_b_mean                    =   3.0032270570833E-21
(PID.TID 0000.0001) %MON ke_max                       =   9.3127591134083E-18
(PID.TID 0000.0001) %MON ke_mean                      =   1.1697645427773E-18
(PID.TID 0000.0001) %MON ke_vol                       =   7.5645000000000E+15
(PID.TID 0000.0001) %MON vort_r_min                   =  -1.3165594232801E-13
(PID.TID 0000.0001) %MON vort_r_max                   =   1.5322749603790E-13
(PID.TID 0000.0001) %MON vort_a_mean                  =   8.2300000000000E-05
(PID.TID 0000.0001) %MON vort_a_sd                    =   7.1297555115592E-06
(PID.TID 0000.0001) %MON vort_p_mean                  =   8.3303658536585E-05
(PID.TID 0000.0001) %MON vort_p_sd                    =   1.7411470229742E-05
(PID.TID 0000.0001) %MON surfExpan_theta_mean         =   6.7057525221747E-27
(PID.TID 0000.0001) %MON surfExpan_salt_mean          =   1.0105647817871E-26
(PID.TID 0000.0001) // =======================================================
(PID.TID 0000.0001) // End MONITOR dynamic field statistics
(PID.TID 0000.0001) // =======================================================
 cg2d: Sum(rhs),rhsMax =  -1.08520097453964E-02  3.74911964016538E-10
 cg2d: Sum(rhs),rhsMax =  -1.08259779170019E-02  3.75813468989376E-10
 cg2d: Sum(rhs),rhsMax =  -1.08014226675154E-02  3.76667821422310E-10
 cg2d: Sum(rhs),rhsMax =  -1.07783337107584E-02  3.77474708157979E-10
 cg2d: Sum(rhs),rhsMax =  -1.07567016260522E-02  3.78233825244337E-10
 cg2d: Sum(rhs),rhsMax =  -1.07365178159095E-02  3.78944878054992E-10
 cg2d: Sum(rhs),rhsMax =  -1.07177745202292E-02  3.79607581347447E-10
 cg2d: Sum(rhs),rhsMax =  -1.07004648285057E-02  3.80221659337479E-10
 cg2d: Sum(rhs),rhsMax =  -1.06845826425509E-02  3.80786845768385E-10
 cg2d: Sum(rhs),rhsMax =  -1.06701226814860E-02  3.81302883979265E-10
 cg2d: Sum(rhs),rhsMax =  -1.06570804957721E-02  3.81769526971123E-10
 cg2d: Sum(rhs),rhsMax =  -1.06454524470301E-02  3.82186537470954E-10
 cg2d: Sum(rhs),rhsMax =  -1.06352356914026E-02  3.82553687993831E-10
 cg2d: Sum(rhs),rhsMax =  -1.06264282390596E-02  3.82870760902785E-10
 cg2d: Sum(rhs),rhsMax =  -1.06190288799776E-02  3.83137548466543E-10
 cg2d: Sum(rhs),rhsMax =  -1.06130372445223E-02  3.83353852915151E-10
(PID.TID 0000.0001)      cg2d_init_res =   2.77847410757506E-01
(PID.TID 0000.0001)      cg2d_iters(min,last) =      -1     548
(PID.TID 0000.0001)      cg2d_last_res =   9.27552932938930E-08
(PID.TID 0000.0001) // =======================================================
(PID.TID 0000.0001) // Begin MONITOR dynamic field statistics
(PID.TID 0000.0001) // =======================================================
(PID.TID 0000.0001) %MON time_tsnumber                =                  3248
(PID.TID 0000.0001) %MON time_secondsf                =   1.7539200000000E+07
(PID.TID 0000.0001) %MON dynstat_eta_max              =   4.2226972826104E-09
(PID.TID 0000.0001) %MON dynstat_eta_min              =  -4.3401324785352E-09
(PID.TID 0000.0001) %MON dynstat_eta_mean             =   3.9209095607805E-13
(PID.TID 0000.0001) %MON dynstat_eta_sd               =   1.7498846221513E-09
(PID.TID 0000.0001) %MON dynstat_eta_del2             =   1.5330569137334E-14
(PID.TID 0000.0001) %MON dynstat_uvel_max             =   1.5754501855843E-09
(PID.TID 0000.0001) %MON dynstat_uvel_min             =  -2.6519229923593E-09
(PID.TID 0000.0001) %MON dynstat_uvel_mean            =  -6.0446530972935E-14
(PID.TID 0000.0001) %MON dynstat_uvel_sd              =   7.2349493996858E-10
(PID.TID 0000.0001) %MON dynstat_uvel_del2            =   5.2181436961031E-14
(PID.TID 0000.0001) %MON dynstat_vvel_max             =   3.3586528472733E-09
(PID.TID 0000.0001) %MON dynstat_vvel_min             =  -4.2611669988731E-09
(PID.TID 0000.0001) %MON dynstat_vvel_mean            =   2.1189725202733E-14
(PID.TID 0000.0001) %MON dynstat_vvel_sd              =   1.3384121161864E-09
(PID.TID 0000.0001) %MON dynstat_vvel_del2            =   6.3584182191277E-14
(PID.TID 0000.0001) %MON dynstat_wvel_max             =   5.1191625080604E-15
(PID.TID 0000.0001) %MON dynstat_wvel_min             =  -1.2255410683504E-14
(PID.TID 0000.0001) %MON dynstat_wvel_mean            =   1.7691871162811E-28
(PID.TID 0000.0001) %MON dynstat_wvel_sd              =   4.3065920312615E-15
(PID.TID 0000.0001) %MON dynstat_wvel_del2            =   2.6632700529292E-20
(PID.TID 0000.0001) %MON dynstat_theta_max            =   2.0000000000000E+01
(PID.TID 0000.0001) %MON dynstat_theta_min            =   2.0000000000000E+01
(PID.TID 0000.0001) %MON dynstat_theta_mean           =   2.0000000000000E+01
(PID.TID 0000.0001) %MON dynstat_theta_sd             =   0.0000000000000E+00
(PID.TID 0000.0001) %MON dynstat_theta_del2           =   0.0000000000000E+00
(PID.TID 0000.0001) %MON dynstat_salt_max             =   3.0000000000000E+01
(PID.TID 0000.0001) %MON dynstat_salt_min             =   3.0000000000000E+01
(PID.TID 0000.0001) %MON dynstat_salt_mean            =   3.0000000000000E+01
(PID.TID 0000.0001) %MON dynstat_salt_sd              =   0.0000000000000E+00
(PID.TID 0000.0001) %MON dynstat_salt_del2            =   0.0000000000000E+00
(PID.TID 0000.0001) %MON trAdv_CFL_u_max              =   2.8744332286147E-09
(PID.TID 0000.0001) %MON trAdv_CFL_v_max              =   4.6039067094678E-09
(PID.TID 0000.0001) %MON trAdv_CFL_w_max              =   5.5670384813022E-15
(PID.TID 0000.0001) %MON advcfl_uvel_max              =   2.8640768317481E-09
(PID.TID 0000.0001) %MON advcfl_vvel_max              =   4.6020603587829E-09
(PID.TID 0000.0001) %MON advcfl_wvel_max              =   2.6471687076368E-14
(PID.TID 0000.0001) %MON advcfl_W_hf_max              =   0.0000000000000E+00
(PID.TID 0000.0001) %MON pe_b_mean                    =   3.0039165140298E-21
(PID.TID 0000.0001) %MON ke_max                       =   9.1263368383335E-18
(PID.TID 0000.0001) %MON ke_mean                      =   1.1526911008726E-18
(PID.TID 0000.0001) %MON ke_vol                       =   7.5645000000000E+15
(PID.TID 0000.0001) %MON vort_r_min                   =  -1.1534570264604E-13
(PID.TID 0000.0001) %MON vort_r_max                   =   1.6009568923373E-13
(PID.TID 0000.0001) %MON vort_a_mean                  =   8.2300000000000E-05
(PID.TID 0000.0001) %MON vort_a_sd                    =   7.1297555115516E-06
(PID.TID 0000.0001) %MON vort_p_mean                  =   8.3303658536586E-05
(PID.TID 0000.0001) %MON vort_p_sd                    =   1.7411470229678E-05
(PID.TID 0000.0001) %MON surfExpan_theta_mean         =   3.5335063590167E-27
(PID.TID 0000.0001) %MON surfExpan_salt_mean          =   5.2417124241353E-27
(PID.TID 0000.0001) // =======================================================
(PID.TID 0000.0001) // End MONITOR dynamic field statistics
(PID.TID 0000.0001) // =======================================================
 cg2d: Sum(rhs),rhsMax =  -1.06084537847913E-02  3.83519486493524E-10
 cg2d: Sum(rhs),rhsMax =  -1.06052797555027E-02  3.83634271512635E-10
 cg2d: Sum(rhs),rhsMax =  -1.06035172755207E-02  3.83698040398681E-10
 cg2d: Sum(rhs),rhsMax =  -1.06031692853671E-02  3.83710635740028E-10
 cg2d: Sum(rhs),rhsMax =  -1.06042395725741E-02  3.83671910331933E-10
 cg2d: Sum(rhs),rhsMax =  -1.06067327802257E-02  3.83581727218992E-10
 cg2d: Sum(rhs),rhsMax =  -1.06106544334572E-02  3.83439959735499E-10
 cg2d: Sum(rhs),rhsMax =  -1.06160109112825E-02  3.83246491543495E-10
 cg2d: Sum(rhs),rhsMax =  -1.06226275420899E-02  3.83007777253564E-10
 cg2d: Sum(rhs),rhsMax =  -1.06306901155835E-02  3.82717297520712E-10
 cg2d: Sum(rhs),rhsMax =  -1.06402094805896E-02  3.82374898360139E-10
 cg2d: Sum(rhs),rhsMax =  -1.06511955566336E-02  3.81980503896277E-10
 cg2d: Sum(rhs),rhsMax =  -1.06636592145023E-02  3.81534048737233E-10
 cg2d: Sum(rhs),rhsMax =  -1.06776122862364E-02  3.81035477999539E-10
 cg2d: Sum(rhs),rhsMax =  -1.06930676207642E-02  3.80484747330450E-10
 cg2d: Sum(rhs),rhsMax =  -1.07100390544496E-02  3.79881822928138E-10
(PID.TID 0000.0001)      cg2d_init_res =   2.84159943933482E-01
(PID.TID 0000.0001)      cg2d_iters(min,last) =      -1     548
(PID.TID 0000.0001)      cg2d_last_res =   9.02611222521242E-08
(PID.TID 0000.0001) // =======================================================
(PID.TID 0000.0001) // Begin MONITOR dynamic field statistics
(PID.TID 0000.0001) // =======================================================
(PID.TID 0000.0001) %MON time_tsnumber                =                  3264
(PID.TID 0000.0001) %MON time_secondsf                =   1.7625600000000E+07
(PID.TID 0000.0001) %MON dynstat_eta_max              =   3.6885167661820E-09
(PID.TID 0000.0001) %MON dynstat_eta_min              =  -4.6393247128824E-09
(PID.TID 0000.0001) %MON dynstat_eta_mean             =   3.9209099847794E-13
(PID.TID 0000.0001) %MON dynstat_eta_sd               =   1.7484023047146E-09
(PID.TID 0000.0001) %MON dynstat_eta_del2             =   1.5258524114754E-14
(PID.TID 0000.0001) %MON dynstat_uvel_max             =   1.5259229883072E-09
(PID.TID 0000.0001) %MON dynstat_uvel_min             =  -2.4734492730019E-09
(PID.TID 0000.0001) %MON dynstat_uvel_mean            =  -1.6578848058138E-14
(PID.TID 0000.0001) %MON dynstat_uvel_sd              =   7.1427106355200E-10
(PID.TID 0000.0001) %MON dynstat_uvel_del2            =   5.4319269660687E-14
(PID.TID 0000.0001) %MON dynstat_vvel_max             =   3.3449921764363E-09
(PID.TID 0000.0001) %MON dynstat_vvel_min             =  -4.2187784523864E-09
(PID.TID 0000.0001) %MON dynstat_vvel_mean            =   2.5041068156208E-14
(PID.TID 0000.0001) %MON dynstat_vvel_sd              =   1.3307584803360E-09
(PID.TID 0000.0001) %MON dynstat_vvel_del2            =   6.1264313575155E-14
(PID.TID 0000.0001) %MON dynstat_wvel_max             =   5.1848273696642E-15
(PID.TID 0000.0001) %MON dynstat_wvel_min             =  -1.2017139006670E-14
(PID.TID 0000.0001) %MON dynstat_wvel_mean            =  -2.1463974559408E-28
(PID.TID 0000.0001) %MON dynstat_wvel_sd              =   4.2953113390075E-15
(PID.TID 0000.0001) %MON dynstat_wvel_del2            =   2.6766439898206E-20
(PID.TID 0000.0001) %MON dynstat_theta_max            =   2.0000000000000E+01
(PID.TID 0000.0001) %MON dynstat_theta_min            =   2.0000000000000E+01
(PID.TID 0000.0001) %MON dynstat_theta_mean           =   2.0000000000000E+01
(PID.TID 0000.0001) %MON dynstat_theta_sd             =   0.0000000000000E+00
(PID.TID 0000.0001) %MON dynstat_theta_del2           =   0.0000000000000E+00
(PID.TID 0000.0001) %MON dynstat_salt_max             =   3.0000000000000E+01
(PID.TID 0000.0001) %MON dynstat_salt_min             =   3.0000000000000E+01
(PID.TID 0000.0001) %MON dynstat_salt_mean            =   3.0000000000000E+01
(PID.TID 0000.0001) %MON dynstat_salt_sd              =   0.0000000000000E+00
(PID.TID 0000.0001) %MON dynstat_salt_del2            =   0.0000000000000E+00
(PID.TID 0000.0001) %MON trAdv_CFL_u_max              =   2.6847171642454E-09
(PID.TID 0000.0001) %MON trAdv_CFL_v_max              =   4.5596606226750E-09
(PID.TID 0000.0001) %MON trAdv_CFL_w_max              =   5.5434564562695E-15
(PID.TID 0000.0001) %MON advcfl_uvel_max              =   2.6713252148420E-09
(PID.TID 0000.0001) %MON advcfl_vvel_max              =   4.5562807285773E-09
(PID.TID 0000.0001) %MON advcfl_wvel_max              =   2.5957020254408E-14
(PID.TID 0000.0001) %MON advcfl_W_hf_max              =   0.0000000000000E+00
(PID.TID 0000.0001) %MON pe_b_mean                    =   2.9988294681824E-21
(PID.TID 0000.0001) %MON ke_max                       =   8.9054326087693E-18
(PID.TID 0000.0001) %MON ke_mean                      =   1.1359142583301E-18
(PID.TID 0000.0001) %MON ke_vol                       =   7.5645000000000E+15
(PID.TID 0000.0001) %MON vort_r_min                   =  -1.0058304860854E-13
(PID.TID 0000.0001) %MON vort_r_max                   =   1.6185774354284E-13
(PID.TID 0000.0001) %MON vort_a_mean                  =   8.2300000000001E-05
(PID.TID 0000.0001) %MON vort_a_sd                    =   7.1297555115455E-06
(PID.TID 0000.0001) %MON vort_p_mean                  =   8.3303658536586E-05
(PID.TID 0000.0001) %MON vort_p_sd                    =   1.7411470229615E-05
(PID.TID 0000.0001) %MON surfExpan_theta_mean         =  -4.3002374587760E-27
(PID.TID 0000.0001) %MON surfExpan_salt_mean          =  -6.4666956827048E-27
(PID.TID 0000.0001) // =======================================================
(PID.TID 0000.0001) // End MONITOR dynamic field statistics
(PID.TID 0000.0001) // =======================================================
 cg2d: Sum(rhs),rhsMax =  -1.07285414918281E-02  3.79226681559507E-10
 cg2d: Sum(rhs),rhsMax =  -1.07485908954890E-02  3.78519310759636E-10
 cg2d: Sum(rhs),rhsMax =  -1.07702043398435E-02  3.77759708084148E-10
 cg2d: Sum(rhs),rhsMax =  -1.07934000080532E-02  3.76947882328181E-10
 cg2d: Sum(rhs),rhsMax =  -1.08181972681827E-02  3.76083852622575E-10
 cg2d: Sum(rhs),rhsMax =  -1.08446166654729E-02  3.75167648789036E-10
 cg2d: Sum(rhs),rhsMax =  -1.08726800007431E-02  3.74199311237879E-10
 cg2d: Sum(rhs),rhsMax =  -1.09024103342759E-02  3.73178891034530E-10
 cg2d: Sum(rhs),rhsMax =  -1.09338320512691E-02  3.72106449859585E-10
 cg2d: Sum(rhs),rhsMax =  -1.09669709125697E-02  3.70982060022507E-10
 cg2d: Sum(rhs),rhsMax =  -1.10018540592366E-02  3.69805804462672E-10
 cg2d: Sum(rhs),rhsMax =  -1.10385101279024E-02  3.68577776712185E-10
 cg2d: Sum(rhs),rhsMax =  -1.10769692612193E-02  3.67298080940338E-10
 cg2d: Sum(rhs),rhsMax =  -1.11172631728367E-02  3.65966831861546E-10
 cg2d: Sum(rhs),rhsMax =  -1.11594252162149E-02  3.64584154680143E-10
 cg2d: Sum(rhs),rhsMax =  -1.12034904559640E-02  3.63150185571329E-10
(PID.TID 0000.0001)      cg2d_init_res =   3.02333267158007E-01
(PID.TID 0000.0001)      cg2d_iters(min,last) =      -1     548
(PID.TID 0000.0001)      cg2d_last_res =   9.56386515191295E-08
(PID.TID 0000.0001) // =======================================================
(PID.TID 0000.0001) // Begin MONITOR dynamic field statistics
(PID.TID 0000.0001) // =======================================================
(PID.TID 0000.0001) %MON time_tsnumber                =                  3280
(PID.TID 0000.0001) %MON time_secondsf                =   1.7712000000000E+07
(PID.TID 0000.0001) %MON dynstat_eta_max              =   3.4747337425673E-09
(PID.TID 0000.0001) %MON dynstat_eta_min              =  -4.8626818518480E-09
(PID.TID 0000.0001) %MON dynstat_eta_mean             =   3.9209104465628E-13
(PID.TID 0000.0001) %MON dynstat_eta_sd               =   1.7449054341119E-09
(PID.TID 0000.0001) %MON dynstat_eta_del2             =   1.5124810292083E-14
(PID.TID 0000.0001) %MON dynstat_uvel_max             =   1.4667843218392E-09
(PID.TID 0000.0001) %MON dynstat_uvel_min             =  -2.2490016635000E-09
(PID.TID 0000.0001) %MON dynstat_uvel_mean            =   2.8560506309359E-14
(PID.TID 0000.0001) %MON dynstat_uvel_sd              =   7.1608710351542E-10
(PID.TID 0000.0001) %MON dynstat_uvel_del2            =   5.6344949681648E-14
(PID.TID 0000.0001) %MON dynstat_vvel_max             =   3.2686142966519E-09
(PID.TID 0000.0001) %MON dynstat_vvel_min             =  -4.1319356958466E-09
(PID.TID 0000.0001) %MON dynstat_vvel_mean            =   2.7984163691174E-14
(PID.TID 0000.0001) %MON dynstat_vvel_sd              =   1.3173742398461E-09
(PID.TID 0000.0001) %MON dynstat_vvel_del2            =   5.9299881082467E-14
(PID.TID 0000.0001) %MON dynstat_wvel_max             =   6.0514076369311E-15
(PID.TID 0000.0001) %MON dynstat_wvel_min             =  -1.1577997660051E-14
(PID.TID 0000.0001) %MON dynstat_wvel_mean            =  -3.3204622803915E-28
(PID.TID 0000.0001) %MON dynstat_wvel_sd              =   4.2902049162044E-15
(PID.TID 0000.0001) %MON dynstat_wvel_del2            =   2.7033712881351E-20
(PID.TID 0000.0001) %MON dynstat_theta_max            =   2.0000000000000E+01
(PID.TID 0000.0001) %MON dynstat_theta_min            =   2.0000000000000E+01
(PID.TID 0000.0001) %MON dynstat_theta_mean           =   2.0000000000000E+01
(PID.TID 0000.0001) %MON dynstat_theta_sd             =   0.0000000000000E+00
(PID.TID 0000.0001) %MON dynstat_theta_del2           =   0.0000000000000E+00
(PID.TID 0000.0001) %MON dynstat_salt_max             =   3.0000000000000E+01
(PID.TID 0000.0001) %MON dynstat_salt_min             =   3.0000000000000E+01
(PID.TID 0000.0001) %MON dynstat_salt_mean            =   3.0000000000000E+01
(PID.TID 0000.0001) %MON dynstat_salt_sd              =   0.0000000000000E+00
(PID.TID 0000.0001) %MON dynstat_salt_del2            =   0.0000000000000E+00
(PID.TID 0000.0001) %MON trAdv_CFL_u_max              =   2.4455445272118E-09
(PID.TID 0000.0001) %MON trAdv_CFL_v_max              =   4.4700979104632E-09
(PID.TID 0000.0001) %MON trAdv_CFL_w_max              =   6.4744549349793E-15
(PID.TID 0000.0001) %MON advcfl_uvel_max              =   2.4289217965800E-09
(PID.TID 0000.0001) %MON advcfl_vvel_max              =   4.4624905515143E-09
(PID.TID 0000.0001) %MON advcfl_wvel_max              =   2.5008474945709E-14
(PID.TID 0000.0001) %MON advcfl_W_hf_max              =   0.0000000000000E+00
(PID.TID 0000.0001) %MON pe_b_mean                    =   2.9868459203018E-21
(PID.TID 0000.0001) %MON ke_max                       =   8.5362440726879E-18
(PID.TID 0000.0001) %MON ke_mean                      =   1.1195581893524E-18
(PID.TID 0000.0001) %MON ke_vol                       =   7.5645000000000E+15
(PID.TID 0000.0001) %MON vort_r_min                   =  -1.0192654488329E-13
(PID.TID 0000.0001) %MON vort_r_max                   =   1.5817720153340E-13
(PID.TID 0000.0001) %MON vort_a_mean                  =   8.2299999999999E-05
(PID.TID 0000.0001) %MON vort_a_sd                    =   7.1297555115658E-06
(PID.TID 0000.0001) %MON vort_p_mean                  =   8.3303658536585E-05
(PID.TID 0000.0001) %MON vort_p_sd                    =   1.7411470229563E-05
(PID.TID 0000.0001) %MON surfExpan_theta_mean         =  -6.6693500929345E-27
(PID.TID 0000.0001) %MON surfExpan_salt_mean          =  -9.9705872414958E-27
(PID.TID 0000.0001) // =======================================================
(PID.TID 0000.0001) // End MONITOR dynamic field statistics
(PID.TID 0000.0001) // =======================================================
 cg2d: Sum(rhs),rhsMax =  -1.12494957229756E-02  3.61665070759298E-10
 cg2d: Sum(rhs),rhsMax =  -1.12974796931787E-02  3.60128967229889E-10
 cg2d: Sum(rhs),rhsMax =  -1.13474829841417E-02  3.58542042408213E-10
 cg2d: Sum(rhs),rhsMax =  -1.13995481928924E-02  3.56904474204622E-10
 cg2d: Sum(rhs),rhsMax =  -1.14537200290177E-02  3.55216450956173E-10
 cg2d: Sum(rhs),rhsMax =  -1.15100454067999E-02  3.53478171475462E-10
 cg2d: Sum(rhs),rhsMax =  -1.15685735240067E-02  3.51689844882416E-10
 cg2d: Sum(rhs),rhsMax =  -1.16293559945804E-02  3.49851690664841E-10
 cg2d: Sum(rhs),rhsMax =  -1.16924469154910E-02  3.47963938637910E-10
 cg2d: Sum(rhs),rhsMax =  -1.17579030505733E-02  3.46026828873397E-10
 cg2d: Sum(rhs),rhsMax =  -1.18257839153639E-02  3.44040611641691E-10
 cg2d: Sum(rhs),rhsMax =  -1.18961519262777E-02  3.42005547482070E-10
 cg2d: Sum(rhs),rhsMax =  -1.19690725821411E-02  3.39921907010101E-10
 cg2d: Sum(rhs),rhsMax =  -1.20446145508122E-02  3.37789970941269E-10
 cg2d: Sum(rhs),rhsMax =  -1.21228499088671E-02  3.35610030028168E-10
 cg2d: Sum(rhs),rhsMax =  -1.22038542821455E-02  3.33382385020333E-10
(PID.TID 0000.0001)      cg2d_init_res =   3.35478929666477E-01
(PID.TID 0000.0001)      cg2d_iters(min,last) =      -1     550
(PID.TID 0000.0001)      cg2d_last_res =   9.19035084778189E-08
(PID.TID 0000.0001) // =======================================================
(PID.TID 0000.0001) // Begin MONITOR dynamic field statistics
(PID.TID 0000.0001) // =======================================================
(PID.TID 0000.0001) %MON time_tsnumber                =                  3296
(PID.TID 0000.0001) %MON time_secondsf                =   1.7798400000000E+07
(PID.TID 0000.0001) %MON dynstat_eta_max              =   3.2971763885630E-09
(PID.TID 0000.0001) %MON dynstat_eta_min              =  -4.9998616406641E-09
(PID.TID 0000.0001) %MON dynstat_eta_mean             =   3.9209108347651E-13
(PID.TID 0000.0001) %MON dynstat_eta_sd               =   1.7395392593635E-09
(PID.TID 0000.0001) %MON dynstat_eta_del2             =   1.4938046183120E-14
(PID.TID 0000.0001) %MON dynstat_uvel_max             =   1.5519308507137E-09
(PID.TID 0000.0001) %MON dynstat_uvel_min             =  -1.9921507086338E-09
(PID.TID 0000.0001) %MON dynstat_uvel_mean            =   7.2519854586833E-14
(PID.TID 0000.0001) %MON dynstat_uvel_sd              =   7.2826662008477E-10
(PID.TID 0000.0001) %MON dynstat_uvel_del2            =   5.7954893931548E-14
(PID.TID 0000.0001) %MON dynstat_vvel_max             =   3.1324914897531E-09
(PID.TID 0000.0001) %MON dynstat_vvel_min             =  -3.9844135557264E-09
(PID.TID 0000.0001) %MON dynstat_vvel_mean            =   2.9966467925196E-14
(PID.TID 0000.0001) %MON dynstat_vvel_sd              =   1.2984800855478E-09
(PID.TID 0000.0001) %MON dynstat_vvel_del2            =   5.8115946953275E-14
(PID.TID 0000.0001) %MON dynstat_wvel_max             =   6.9613255387901E-15
(PID.TID 0000.0001) %MON dynstat_wvel_min             =  -1.0947074229328E-14
(PID.TID 0000.0001) %MON dynstat_wvel_mean            =  -7.8628958711934E-29
(PID.TID 0000.0001) %MON dynstat_wvel_sd              =   4.2906673319347E-15
(PID.TID 0000.0001) %MON dynstat_wvel_del2            =   2.7402020605865E-20
(PID.TID 0000.0001) %MON dynstat_theta_max            =   2.0000000000000E+01
(PID.TID 0000.0001) %MON dynstat_theta_min            =   2.0000000000000E+01
(PID.TID 0000.0001) %MON dynstat_theta_mean           =   2.0000000000000E+01
(PID.TID 0000.0001) %MON dynstat_theta_sd             =   0.0000000000000E+00
(PID.TID 0000.0001) %MON dynstat_theta_del2           =   0.0000000000000E+00
(PID.TID 0000.0001) %MON dynstat_salt_max             =   3.0000000000000E+01
(PID.TID 0000.0001) %MON dynstat_salt_min             =   3.0000000000000E+01
(PID.TID 0000.0001) %MON dynstat_salt_mean            =   3.0000000000000E+01
(PID.TID 0000.0001) %MON dynstat_salt_sd              =   0.0000000000000E+00
(PID.TID 0000.0001) %MON dynstat_salt_del2            =   0.0000000000000E+00
(PID.TID 0000.0001) %MON trAdv_CFL_u_max              =   2.1700397081619E-09
(PID.TID 0000.0001) %MON trAdv_CFL_v_max              =   4.3147722207357E-09
(PID.TID 0000.0001) %MON trAdv_CFL_w_max              =   7.4566542230814E-15
(PID.TID 0000.0001) %MON advcfl_uvel_max              =   2.1515227653245E-09
(PID.TID 0000.0001) %MON advcfl_vvel_max              =   4.3031666401845E-09
(PID.TID 0000.0001) %MON advcfl_wvel_max              =   2.3645680335349E-14
(PID.TID 0000.0001) %MON advcfl_W_hf_max              =   0.0000000000000E+00
(PID.TID 0000.0001) %MON pe_b_mean                    =   2.9685030458188E-21
(PID.TID 0000.0001) %MON ke_max                       =   7.9372975628920E-18
(PID.TID 0000.0001) %MON ke_mean                      =   1.1037064799176E-18
(PID.TID 0000.0001) %MON ke_vol                       =   7.5645000000000E+15
(PID.TID 0000.0001) %MON vort_r_min                   =  -1.0795965851682E-13
(PID.TID 0000.0001) %MON vort_r_max                   =   1.4902500776885E-13
(PID.TID 0000.0001) %MON vort_a_mean                  =   8.2300000000000E-05
(PID.TID 0000.0001) %MON vort_a_sd                    =   7.1297555115671E-06
(PID.TID 0000.0001) %MON vort_p_mean                  =   8.3303658536585E-05
(PID.TID 0000.0001) %MON vort_p_sd                    =   1.7411470229507E-05
(PID.TID 0000.0001) %MON surfExpan_theta_mean         =  -1.5170875729018E-27
(PID.TID 0000.0001) %MON surfExpan_salt_mean          =  -2.1773152950592E-27
(PID.TID 0000.0001) // =======================================================
(PID.TID 0000.0001) // End MONITOR dynamic field statistics
(PID.TID 0000.0001) // =======================================================
 cg2d: Sum(rhs),rhsMax =  -1.22877070278404E-02  3.31107346600506E-10
 cg2d: Sum(rhs),rhsMax =  -1.23744914886756E-02  3.28785235328707E-10
 cg2d: Sum(rhs),rhsMax =  -1.24642951421094E-02  3.26416381583464E-10
 cg2d: Sum(rhs),rhsMax =  -1.25572099078596E-02  3.24001125501064E-10
 cg2d: Sum(rhs),rhsMax =  -1.26533323512227E-02  3.21539816912299E-10
 cg2d: Sum(rhs),rhsMax =  -1.27527639735812E-02  3.19032815277616E-10
 cg2d: Sum(rhs),rhsMax =  -1.28556114821326E-02  3.16480489619674E-10
 cg2d: Sum(rhs),rhsMax =  -1.29619871404118E-02  3.13883218454147E-10
 cg2d: Sum(rhs),rhsMax =  -1.30720090624473E-02  3.11241389718244E-10
 cg2d: Sum(rhs),rhsMax =  -1.31858015940886E-02  3.08555400697598E-10
 cg2d: Sum(rhs),rhsMax =  -1.33034956787019E-02  3.05825657950545E-10
 cg2d: Sum(rhs),rhsMax =  -1.34251512024135E-02  3.03054340748460E-10
 cg2d: Sum(rhs),rhsMax =  -1.35506578059690E-02  3.00247444056414E-10
 cg2d: Sum(rhs),rhsMax =  -1.36804860372907E-02  2.97398088142284E-10
 cg2d: Sum(rhs),rhsMax =  -1.38147967874570E-02  2.94506714505059E-10
 cg2d: Sum(rhs),rhsMax =  -1.39537599171676E-02  2.91573773751737E-10
(PID.TID 0000.0001)      cg2d_init_res =   3.90460073842381E-01
(PID.TID 0000.0001)      cg2d_iters(min,last) =      -1     551
(PID.TID 0000.0001)      cg2d_last_res =   9.55403539454216E-08
(PID.TID 0000.0001) // =======================================================
(PID.TID 0000.0001) // Begin MONITOR dynamic field statistics
(PID.TID 0000.0001) // =======================================================
(PID.TID 0000.0001) %MON time_tsnumber                =                  3312
(PID.TID 0000.0001) %MON time_secondsf                =   1.7884800000000E+07
(PID.TID 0000.0001) %MON dynstat_eta_max              =   3.0900840936345E-09
(PID.TID 0000.0001) %MON dynstat_eta_min              =  -5.0465260018297E-09
(PID.TID 0000.0001) %MON dynstat_eta_mean             =   3.9209112120890E-13
(PID.TID 0000.0001) %MON dynstat_eta_sd               =   1.7328840522599E-09
(PID.TID 0000.0001) %MON dynstat_eta_del2             =   1.4713737470252E-14
(PID.TID 0000.0001) %MON dynstat_uvel_max             =   1.8238033650718E-09
(PID.TID 0000.0001) %MON dynstat_uvel_min             =  -1.9057746945215E-09
(PID.TID 0000.0001) %MON dynstat_uvel_mean            =   1.1291619987827E-13
(PID.TID 0000.0001) %MON dynstat_uvel_sd              =   7.4766252839900E-10
(PID.TID 0000.0001) %MON dynstat_uvel_del2            =   5.8927822287118E-14
(PID.TID 0000.0001) %MON dynstat_vvel_max             =   3.3010893794685E-09
(PID.TID 0000.0001) %MON dynstat_vvel_min             =  -3.7756178464859E-09
(PID.TID 0000.0001) %MON dynstat_vvel_mean            =   3.0979912428002E-14
(PID.TID 0000.0001) %MON dynstat_vvel_sd              =   1.2754089511831E-09
(PID.TID 0000.0001) %MON dynstat_vvel_del2            =   5.8007554621466E-14
(PID.TID 0000.0001) %MON dynstat_wvel_max             =   7.8642125056483E-15
(PID.TID 0000.0001) %MON dynstat_wvel_min             =  -1.0145103855885E-14
(PID.TID 0000.0001) %MON dynstat_wvel_mean            =   2.4105615344206E-28
(PID.TID 0000.0001) %MON dynstat_wvel_sd              =   4.2945042298332E-15
(PID.TID 0000.0001) %MON dynstat_wvel_del2            =   2.7830956667719E-20
(PID.TID 0000.0001) %MON dynstat_theta_max            =   2.0000000000000E+01
(PID.TID 0000.0001) %MON dynstat_theta_min            =   2.0000000000000E+01
(PID.TID 0000.0001) %MON dynstat_theta_mean           =   2.0000000000000E+01
(PID.TID 0000.0001) %MON dynstat_theta_sd             =   0.0000000000000E+00
(PID.TID 0000.0001) %MON dynstat_theta_del2           =   0.0000000000000E+00
(PID.TID 0000.0001) %MON dynstat_salt_max             =   3.0000000000000E+01
(PID.TID 0000.0001) %MON dynstat_salt_min             =   3.0000000000000E+01
(PID.TID 0000.0001) %MON dynstat_salt_mean            =   3.0000000000000E+01
(PID.TID 0000.0001) %MON dynstat_salt_sd              =   0.0000000000000E+00
(PID.TID 0000.0001) %MON dynstat_salt_del2            =   0.0000000000000E+00
(PID.TID 0000.0001) %MON trAdv_CFL_u_max              =   2.0583836200664E-09
(PID.TID 0000.0001) %MON trAdv_CFL_v_max              =   4.0940609429303E-09
(PID.TID 0000.0001) %MON trAdv_CFL_w_max              =   8.4341975797431E-15
(PID.TID 0000.0001) %MON advcfl_uvel_max              =   2.0582366700832E-09
(PID.TID 0000.0001) %MON advcfl_vvel_max              =   4.0776672742047E-09
(PID.TID 0000.0001) %MON advcfl_wvel_max              =   2.1913424328712E-14
(PID.TID 0000.0001) %MON advcfl_W_hf_max              =   0.0000000000000E+00
(PID.TID 0000.0001) %MON pe_b_mean                    =   2.9458324337582E-21
(PID.TID 0000.0001) %MON ke_max                       =   7.1265515252890E-18
(PID.TID 0000.0001) %MON ke_mean                      =   1.0883912182840E-18
(PID.TID 0000.0001) %MON ke_vol                       =   7.5645000000000E+15
(PID.TID 0000.0001) %MON vort_r_min                   =  -1.2089401298942E-13
(PID.TID 0000.0001) %MON vort_r_max                   =   1.3460481888278E-13
(PID.TID 0000.0001) %MON vort_a_mean                  =   8.2300000000000E-05
(PID.TID 0000.0001) %MON vort_a_sd                    =   7.1297555115647E-06
(PID.TID 0000.0001) %MON vort_p_mean                  =   8.3303658536585E-05
(PID.TID 0000.0001) %MON vort_p_sd                    =   1.7411470229453E-05
(PID.TID 0000.0001) %MON surfExpan_theta_mean         =   4.8368878944417E-27
(PID.TID 0000.0001) %MON surfExpan_salt_mean          =   7.2824767589833E-27
(PID.TID 0000.0001) // =======================================================
(PID.TID 0000.0001) // End MONITOR dynamic field statistics
(PID.TID 0000.0001) // =======================================================
 cg2d: Sum(rhs),rhsMax =  -1.40975548671579E-02  2.88599725232994E-10
 cg2d: Sum(rhs),rhsMax =  -1.42463713436745E-02  2.85585036915636E-10
 cg2d: Sum(rhs),rhsMax =  -1.44004100021154E-02  2.82530185440635E-10
 cg2d: Sum(rhs),rhsMax =  -1.45598832781504E-02  2.79435655898764E-10
 cg2d: Sum(rhs),rhsMax =  -1.47250161421096E-02  2.76301941843484E-10
 cg2d: Sum(rhs),rhsMax =  -1.48960471318551E-02  2.73129545105256E-10
 cg2d: Sum(rhs),rhsMax =  -1.50732292520043E-02  2.69918975768451E-10
 cg2d: Sum(rhs),rhsMax =  -1.52568311070046E-02  2.66670752009680E-10
 cg2d: Sum(rhs),rhsMax =  -1.52128987643876E-02  2.67440854569414E-10
 cg2d: Sum(rhs),rhsMax =  -1.51564307097268E-02  2.68437255780766E-10
 cg2d: Sum(rhs),rhsMax =  -1.51009392244462E-02  2.69423684914199E-10
 cg2d: Sum(rhs),rhsMax =  -1.50482678631028E-02  2.70366712742312E-10
 cg2d: Sum(rhs),rhsMax =  -1.49983705791596E-02  2.71266182930102E-10
 cg2d: Sum(rhs),rhsMax =  -1.49481592668092E-02  2.72177375645133E-10
 cg2d: Sum(rhs),rhsMax =  -1.48998434112265E-02  2.73059969218282E-10
 cg2d: Sum(rhs),rhsMax =  -1.48542141162230E-02  2.73898758650094E-10
(PID.TID 0000.0001)      cg2d_init_res =   4.21891034422172E-01
(PID.TID 0000.0001)      cg2d_iters(min,last) =      -1     551
(PID.TID 0000.0001)      cg2d_last_res =   9.38544441925614E-08
(PID.TID 0000.0001) // =======================================================
(PID.TID 0000.0001) // Begin MONITOR dynamic field statistics
(PID.TID 0000.0001) // =======================================================
(PID.TID 0000.0001) %MON time_tsnumber                =                  3328
(PID.TID 0000.0001) %MON time_secondsf                =   1.7971200000000E+07
(PID.TID 0000.0001) %MON dynstat_eta_max              =   2.8814891242534E-09
(PID.TID 0000.0001) %MON dynstat_eta_min              =  -5.0009476124438E-09
(PID.TID 0000.0001) %MON dynstat_eta_mean             =   3.9209115686037E-13
(PID.TID 0000.0001) %MON dynstat_eta_sd               =   1.7258070714879E-09
(PID.TID 0000.0001) %MON dynstat_eta_del2             =   1.4472840221727E-14
(PID.TID 0000.0001) %MON dynstat_uvel_max             =   2.0743162874030E-09
(PID.TID 0000.0001) %MON dynstat_uvel_min             =  -1.8803402011680E-09
(PID.TID 0000.0001) %MON dynstat_uvel_mean            =   1.4756525406394E-13
(PID.TID 0000.0001) %MON dynstat_uvel_sd              =   7.6964212597235E-10
(PID.TID 0000.0001) %MON dynstat_uvel_del2            =   5.9148454806134E-14
(PID.TID 0000.0001) %MON dynstat_vvel_max             =   3.5033457958558E-09
(PID.TID 0000.0001) %MON dynstat_vvel_min             =  -3.5109420778487E-09
(PID.TID 0000.0001) %MON dynstat_vvel_mean            =   3.1059739693079E-14
(PID.TID 0000.0001) %MON dynstat_vvel_sd              =   1.2504374252055E-09
(PID.TID 0000.0001) %MON dynstat_vvel_del2            =   5.9039259469182E-14
(PID.TID 0000.0001) %MON dynstat_wvel_max             =   8.7147754990191E-15
(PID.TID 0000.0001) %MON dynstat_wvel_min             =  -9.2094865156156E-15
(PID.TID 0000.0001) %MON dynstat_wvel_mean            =  -2.8422699996609E-28
(PID.TID 0000.0001) %MON dynstat_wvel_sd              =   4.2984911752472E-15
(PID.TID 0000.0001) %MON dynstat_wvel_del2            =   2.8270097173930E-20
(PID.TID 0000.0001) %MON dynstat_theta_max            =   2.0000000000000E+01
(PID.TID 0000.0001) %MON dynstat_theta_min            =   2.0000000000000E+01
(PID.TID 0000.0001) %MON dynstat_theta_mean           =   2.0000000000000E+01
(PID.TID 0000.0001) %MON dynstat_theta_sd             =   0.0000000000000E+00
(PID.TID 0000.0001) %MON dynstat_theta_del2           =   0.0000000000000E+00
(PID.TID 0000.0001) %MON dynstat_salt_max             =   3.0000000000000E+01
(PID.TID 0000.0001) %MON dynstat_salt_min             =   3.0000000000000E+01
(PID.TID 0000.0001) %MON dynstat_salt_mean            =   3.0000000000000E+01
(PID.TID 0000.0001) %MON dynstat_salt_sd              =   0.0000000000000E+00
(PID.TID 0000.0001) %MON dynstat_salt_del2            =   0.0000000000000E+00
(PID.TID 0000.0001) %MON trAdv_CFL_u_max              =   2.2247114627036E-09
(PID.TID 0000.0001) %MON trAdv_CFL_v_max              =   3.8108236990067E-09
(PID.TID 0000.0001) %MON trAdv_CFL_w_max              =   9.3560847633345E-15
(PID.TID 0000.0001) %MON advcfl_uvel_max              =   2.2402615903952E-09
(PID.TID 0000.0001) %MON advcfl_vvel_max              =   3.7918174440766E-09
(PID.TID 0000.0001) %MON advcfl_wvel_max              =   1.9892490873730E-14
(PID.TID 0000.0001) %MON advcfl_W_hf_max              =   0.0000000000000E+00
(PID.TID 0000.0001) %MON pe_b_mean                    =   2.9218204079002E-21
(PID.TID 0000.0001) %MON ke_max                       =   6.5169423944798E-18
(PID.TID 0000.0001) %MON ke_mean                      =   1.0735893920644E-18
(PID.TID 0000.0001) %MON ke_vol                       =   7.5645000000000E+15
(PID.TID 0000.0001) %MON vort_r_min                   =  -1.3110307701474E-13
(PID.TID 0000.0001) %MON vort_r_max                   =   1.1540593650916E-13
(PID.TID 0000.0001) %MON vort_a_mean                  =   8.2300000000000E-05
(PID.TID 0000.0001) %MON vort_a_sd                    =   7.1297555115534E-06
(PID.TID 0000.0001) %MON vort_p_mean                  =   8.3303658536586E-05
(PID.TID 0000.0001) %MON vort_p_sd                    =   1.7411470229405E-05
(PID.TID 0000.0001) %MON surfExpan_theta_mean         =  -5.7118585402008E-27
(PID.TID 0000.0001) %MON surfExpan_salt_mean          =  -8.5324844131685E-27
(PID.TID 0000.0001) // =======================================================
(PID.TID 0000.0001) // End MONITOR dynamic field statistics
(PID.TID 0000.0001) // =======================================================
 cg2d: Sum(rhs),rhsMax =  -1.48112320766058E-02  2.74693611587949E-10
 cg2d: Sum(rhs),rhsMax =  -1.47670689789306E-02  2.75515124941992E-10
 cg2d: Sum(rhs),rhsMax =  -1.47254785166192E-02  2.76293288347204E-10
 cg2d: Sum(rhs),rhsMax =  -1.46864608922376E-02  2.77027320689202E-10
 cg2d: Sum(rhs),rhsMax =  -1.46494698513783E-02  2.77726837975169E-10
 cg2d: Sum(rhs),rhsMax =  -1.46117126080474E-02  2.78444497093344E-10
 cg2d: Sum(rhs),rhsMax =  -1.45764620284305E-02  2.79117867638619E-10
 cg2d: Sum(rhs),rhsMax =  -1.45436881116445E-02  2.79746856277755E-10
 cg2d: Sum(rhs),rhsMax =  -1.45125390336243E-02  2.80347294461871E-10
 cg2d: Sum(rhs),rhsMax =  -1.44808790745228E-02  2.80960227896043E-10
 cg2d: Sum(rhs),rhsMax =  -1.44516402239964E-02  2.81528674402035E-10
 cg2d: Sum(rhs),rhsMax =  -1.44247975461767E-02  2.82052564674140E-10
 cg2d: Sum(rhs),rhsMax =  -1.43994233367512E-02  2.82549590682699E-10
 cg2d: Sum(rhs),rhsMax =  -1.43735692491294E-02  2.83057821729295E-10
 cg2d: Sum(rhs),rhsMax =  -1.43500652753221E-02  2.83521444083892E-10
 cg2d: Sum(rhs),rhsMax =  -1.43288911411200E-02  2.83940412458251E-10
(PID.TID 0000.0001)      cg2d_init_res =   4.11175409441001E-01
(PID.TID 0000.0001)      cg2d_iters(min,last) =      -1     549
(PID.TID 0000.0001)      cg2d_last_res =   9.95087710112903E-08
(PID.TID 0000.0001) // =======================================================
(PID.TID 0000.0001) // Begin MONITOR dynamic field statistics
(PID.TID 0000.0001) // =======================================================
(PID.TID 0000.0001) %MON time_tsnumber                =                  3344
(PID.TID 0000.0001) %MON time_secondsf                =   1.8057600000000E+07
(PID.TID 0000.0001) %MON dynstat_eta_max              =   2.7190078508643E-09
(PID.TID 0000.0001) %MON dynstat_eta_min              =  -4.8661712221990E-09
(PID.TID 0000.0001) %MON dynstat_eta_mean             =   3.9209120158076E-13
(PID.TID 0000.0001) %MON dynstat_eta_sd               =   1.7192400570042E-09
(PID.TID 0000.0001) %MON dynstat_eta_del2             =   1.4239314180620E-14
(PID.TID 0000.0001) %MON dynstat_uvel_max             =   2.2807693882092E-09
(PID.TID 0000.0001) %MON dynstat_uvel_min             =  -1.8913030679338E-09
(PID.TID 0000.0001) %MON dynstat_uvel_mean            =   1.7459979564466E-13
(PID.TID 0000.0001) %MON dynstat_uvel_sd              =   7.8929541103248E-10
(PID.TID 0000.0001) %MON dynstat_uvel_del2            =   5.8617529645322E-14
(PID.TID 0000.0001) %MON dynstat_vvel_max             =   3.6579850042455E-09
(PID.TID 0000.0001) %MON dynstat_vvel_min             =  -3.1983844445193E-09
(PID.TID 0000.0001) %MON dynstat_vvel_mean            =   3.0281140307034E-14
(PID.TID 0000.0001) %MON dynstat_vvel_sd              =   1.2264234003600E-09
(PID.TID 0000.0001) %MON dynstat_vvel_del2            =   6.1020539925104E-14
(PID.TID 0000.0001) %MON dynstat_wvel_max             =   9.4716434972941E-15
(PID.TID 0000.0001) %MON dynstat_wvel_min             =  -8.2197666809170E-15
(PID.TID 0000.0001) %MON dynstat_wvel_mean            =  -2.7297335550091E-29
(PID.TID 0000.0001) %MON dynstat_wvel_sd              =   4.2991613066807E-15
(PID.TID 0000.0001) %MON dynstat_wvel_del2            =   2.8656697792099E-20
(PID.TID 0000.0001) %MON dynstat_theta_max            =   2.0000000000000E+01
(PID.TID 0000.0001) %MON dynstat_theta_min            =   2.0000000000000E+01
(PID.TID 0000.0001) %MON dynstat_theta_mean           =   2.0000000000000E+01
(PID.TID 0000.0001) %MON dynstat_theta_sd             =   0.0000000000000E+00
(PID.TID 0000.0001) %MON dynstat_theta_del2           =   0.0000000000000E+00
(PID.TID 0000.0001) %MON dynstat_salt_max             =   3.0000000000000E+01
(PID.TID 0000.0001) %MON dynstat_salt_min             =   3.0000000000000E+01
(PID.TID 0000.0001) %MON dynstat_salt_mean            =   3.0000000000000E+01
(PID.TID 0000.0001) %MON dynstat_salt_sd              =   0.0000000000000E+00
(PID.TID 0000.0001) %MON dynstat_salt_del2            =   0.0000000000000E+00
(PID.TID 0000.0001) %MON trAdv_CFL_u_max              =   2.4507748180093E-09
(PID.TID 0000.0001) %MON trAdv_CFL_v_max              =   3.9410782256407E-09
(PID.TID 0000.0001) %MON trAdv_CFL_w_max              =   1.0182321942609E-14
(PID.TID 0000.0001) %MON advcfl_uvel_max              =   2.4632309392659E-09
(PID.TID 0000.0001) %MON advcfl_vvel_max              =   3.9506238045851E-09
(PID.TID 0000.0001) %MON advcfl_wvel_max              =   2.0458749954155E-14
(PID.TID 0000.0001) %MON advcfl_W_hf_max              =   0.0000000000000E+00
(PID.TID 0000.0001) %MON pe_b_mean                    =   2.8996265833238E-21
(PID.TID 0000.0001) %MON ke_max                       =   7.0674053853783E-18
(PID.TID 0000.0001) %MON ke_mean                      =   1.0592274398094E-18
(PID.TID 0000.0001) %MON ke_vol                       =   7.5645000000000E+15
(PID.TID 0000.0001) %MON vort_r_min                   =  -1.3828479450970E-13
(PID.TID 0000.0001) %MON vort_r_max                   =   9.2182470693641E-14
(PID.TID 0000.0001) %MON vort_a_mean                  =   8.2300000000000E-05
(PID.TID 0000.0001) %MON vort_a_sd                    =   7.1297555115600E-06
(PID.TID 0000.0001) %MON vort_p_mean                  =   8.3303658536585E-05
(PID.TID 0000.0001) %MON vort_p_sd                    =   1.7411470229372E-05
(PID.TID 0000.0001) %MON surfExpan_theta_mean         =  -4.6920104923033E-28
(PID.TID 0000.0001) %MON surfExpan_salt_mean          =  -6.9764072345778E-28
(PID.TID 0000.0001) // =======================================================
(PID.TID 0000.0001) // End MONITOR dynamic field statistics
(PID.TID 0000.0001) // =======================================================
 cg2d: Sum(rhs),rhsMax =  -1.43092681280439E-02  2.84329796489034E-10
 cg2d: Sum(rhs),rhsMax =  -1.42889762294015E-02  2.84733578166385E-10
 cg2d: Sum(rhs),rhsMax =  -1.42709767052607E-02  2.85092705945188E-10
 cg2d: Sum(rhs),rhsMax =  -1.42552535243622E-02  2.85407158530428E-10
 cg2d: Sum(rhs),rhsMax =  -1.42413995144059E-02  2.85684804702369E-10
 cg2d: Sum(rhs),rhsMax =  -1.42264696009175E-02  2.85984617881176E-10
 cg2d: Sum(rhs),rhsMax =  -1.42137864414411E-02  2.86239808380044E-10
 cg2d: Sum(rhs),rhsMax =  -1.42033379769616E-02  2.86450378719565E-10
 cg2d: Sum(rhs),rhsMax =  -1.41951138512756E-02  2.86616340289213E-10
 cg2d: Sum(rhs),rhsMax =  -1.41855831864251E-02  2.86808907708728E-10
 cg2d: Sum(rhs),rhsMax =  -1.41780676113269E-02  2.86960943249177E-10
 cg2d: Sum(rhs),rhsMax =  -1.41727561333145E-02  2.87068489532533E-10
 cg2d: Sum(rhs),rhsMax =  -1.41696420657774E-02  2.87131581585778E-10
 cg2d: Sum(rhs),rhsMax =  -1.41660059339750E-02  2.87205285359399E-10
 cg2d: Sum(rhs),rhsMax =  -1.41635460199200E-02  2.87255170021190E-10
 cg2d: Sum(rhs),rhsMax =  -1.41632699785975E-02  2.87260771595294E-10
(PID.TID 0000.0001)      cg2d_init_res =   4.08269949071510E-01
(PID.TID 0000.0001)      cg2d_iters(min,last) =      -1     548
(PID.TID 0000.0001)      cg2d_last_res =   9.98717319392861E-08
(PID.TID 0000.0001) // =======================================================
(PID.TID 0000.0001) // Begin MONITOR dynamic field statistics
(PID.TID 0000.0001) // =======================================================
(PID.TID 0000.0001) %MON time_tsnumber                =                  3360
(PID.TID 0000.0001) %MON time_secondsf                =   1.8144000000000E+07
(PID.TID 0000.0001) %MON dynstat_eta_max              =   2.5558670775185E-09
(PID.TID 0000.0001) %MON dynstat_eta_min              =  -4.6468129061168E-09
(PID.TID 0000.0001) %MON dynstat_eta_mean             =   3.9209126129317E-13
(PID.TID 0000.0001) %MON dynstat_eta_sd               =   1.7139326259880E-09
(PID.TID 0000.0001) %MON dynstat_eta_del2             =   1.4036776472240E-14
(PID.TID 0000.0001) %MON dynstat_uvel_max             =   2.4464741744157E-09
(PID.TID 0000.0001) %MON dynstat_uvel_min             =  -1.8696759811969E-09
(PID.TID 0000.0001) %MON dynstat_uvel_mean            =   1.9256992815913E-13
(PID.TID 0000.0001) %MON dynstat_uvel_sd              =   8.0239368359841E-10
(PID.TID 0000.0001) %MON dynstat_uvel_del2            =   5.7452279556570E-14
(PID.TID 0000.0001) %MON dynstat_vvel_max             =   3.7620429821377E-09
(PID.TID 0000.0001) %MON dynstat_vvel_min             =  -2.8481908635807E-09
(PID.TID 0000.0001) %MON dynstat_vvel_mean            =   2.8753916787938E-14
(PID.TID 0000.0001) %MON dynstat_vvel_sd              =   1.2062683976280E-09
(PID.TID 0000.0001) %MON dynstat_vvel_del2            =   6.3574956230569E-14
(PID.TID 0000.0001) %MON dynstat_wvel_max             =   1.0102940631307E-14
(PID.TID 0000.0001) %MON dynstat_wvel_min             =  -7.4160808966051E-15
(PID.TID 0000.0001) %MON dynstat_wvel_mean            =  -2.3369304725347E-28
(PID.TID 0000.0001) %MON dynstat_wvel_sd              =   4.2936200487408E-15
(PID.TID 0000.0001) %MON dynstat_wvel_del2            =   2.8931782649094E-20
(PID.TID 0000.0001) %MON dynstat_theta_max            =   2.0000000000000E+01
(PID.TID 0000.0001) %MON dynstat_theta_min            =   2.0000000000000E+01
(PID.TID 0000.0001) %MON dynstat_theta_mean           =   2.0000000000000E+01
(PID.TID 0000.0001) %MON dynstat_theta_sd             =   0.0000000000000E+00
(PID.TID 0000.0001) %MON dynstat_theta_del2           =   0.0000000000000E+00
(PID.TID 0000.0001) %MON dynstat_salt_max             =   3.0000000000000E+01
(PID.TID 0000.0001) %MON dynstat_salt_min             =   3.0000000000000E+01
(PID.TID 0000.0001) %MON dynstat_salt_mean            =   3.0000000000000E+01
(PID.TID 0000.0001) %MON dynstat_salt_sd              =   0.0000000000000E+00
(PID.TID 0000.0001) %MON dynstat_salt_del2            =   0.0000000000000E+00
(PID.TID 0000.0001) %MON trAdv_CFL_u_max              =   2.6328170776045E-09
(PID.TID 0000.0001) %MON trAdv_CFL_v_max              =   4.0577431181771E-09
(PID.TID 0000.0001) %MON trAdv_CFL_w_max              =   1.0871968611181E-14
(PID.TID 0000.0001) %MON advcfl_uvel_max              =   2.6421921083690E-09
(PID.TID 0000.0001) %MON advcfl_vvel_max              =   4.0630064207088E-09
(PID.TID 0000.0001) %MON advcfl_wvel_max              =   2.1822351763623E-14
(PID.TID 0000.0001) %MON advcfl_W_hf_max              =   0.0000000000000E+00
(PID.TID 0000.0001) %MON pe_b_mean                    =   2.8817514613586E-21
(PID.TID 0000.0001) %MON ke_max                       =   7.4289277856170E-18
(PID.TID 0000.0001) %MON ke_mean                      =   1.0451934585033E-18
(PID.TID 0000.0001) %MON ke_vol                       =   7.5645000000000E+15
(PID.TID 0000.0001) %MON vort_r_min                   =  -1.4221192707479E-13
(PID.TID 0000.0001) %MON vort_r_max                   =   8.2327682462873E-14
(PID.TID 0000.0001) %MON vort_a_mean                  =   8.2300000000000E-05
(PID.TID 0000.0001) %MON vort_a_sd                    =   7.1297555115674E-06
(PID.TID 0000.0001) %MON vort_p_mean                  =   8.3303658536585E-05
(PID.TID 0000.0001) %MON vort_p_sd                    =   1.7411470229352E-05
(PID.TID 0000.0001) %MON surfExpan_theta_mean         =  -4.7515021136546E-27
(PID.TID 0000.0001) %MON surfExpan_salt_mean          =  -7.0868123721171E-27
(PID.TID 0000.0001) // =======================================================
(PID.TID 0000.0001) // End MONITOR dynamic field statistics
(PID.TID 0000.0001) // =======================================================
 cg2d: Sum(rhs),rhsMax =  -1.41651747097438E-02  2.87222148637385E-10
 cg2d: Sum(rhs),rhsMax =  -1.41675753883146E-02  2.87173483146592E-10
 cg2d: Sum(rhs),rhsMax =  -1.41700942780033E-02  2.87122438838966E-10
 cg2d: Sum(rhs),rhsMax =  -1.41747867957421E-02  2.87027392109677E-10
 cg2d: Sum(rhs),rhsMax =  -1.41816532242991E-02  2.86888424522658E-10
 cg2d: Sum(rhs),rhsMax =  -1.41902735290120E-02  2.86714150192402E-10
 cg2d: Sum(rhs),rhsMax =  -1.41977282292549E-02  2.86563612121692E-10
 cg2d: Sum(rhs),rhsMax =  -1.42073559286718E-02  2.86369425859004E-10
 cg2d: Sum(rhs),rhsMax =  -1.42191602740241E-02  2.86131695771434E-10
 cg2d: Sum(rhs),rhsMax =  -1.42331464230519E-02  2.85850534643014E-10
 cg2d: Sum(rhs),rhsMax =  -1.42466057568912E-02  2.85580485903386E-10
 cg2d: Sum(rhs),rhsMax =  -1.42611683294261E-02  2.85288875941727E-10
 cg2d: Sum(rhs),rhsMax =  -1.42779197252029E-02  2.84954171280543E-10
 cg2d: Sum(rhs),rhsMax =  -1.42968684968151E-02  2.84576507141815E-10
 cg2d: Sum(rhs),rhsMax =  -1.43170280685035E-02  2.84175809316798E-10
 cg2d: Sum(rhs),rhsMax =  -1.43365585476568E-02  2.83788692723587E-10
(PID.TID 0000.0001)      cg2d_init_res =   4.12573442489675E-01
(PID.TID 0000.0001)      cg2d_iters(min,last) =      -1     549
(PID.TID 0000.0001)      cg2d_last_res =   9.58959588437237E-08
(PID.TID 0000.0001) // =======================================================
(PID.TID 0000.0001) // Begin MONITOR dynamic field statistics
(PID.TID 0000.0001) // =======================================================
(PID.TID 0000.0001) %MON time_tsnumber                =                  3376
(PID.TID 0000.0001) %MON time_secondsf                =   1.8230400000000E+07
(PID.TID 0000.0001) %MON dynstat_eta_max              =   2.7541751102846E-09
(PID.TID 0000.0001) %MON dynstat_eta_min              =  -4.3505996792109E-09
(PID.TID 0000.0001) %MON dynstat_eta_mean             =   3.9209140776066E-13
(PID.TID 0000.0001) %MON dynstat_eta_sd               =   1.7102421097201E-09
(PID.TID 0000.0001) %MON dynstat_eta_del2             =   1.3884670738790E-14
(PID.TID 0000.0001) %MON dynstat_uvel_max             =   2.5591467469080E-09
(PID.TID 0000.0001) %MON dynstat_uvel_min             =  -1.9309514227858E-09
(PID.TID 0000.0001) %MON dynstat_uvel_mean            =   2.0051988343375E-13
(PID.TID 0000.0001) %MON dynstat_uvel_sd              =   8.0597283652644E-10
(PID.TID 0000.0001) %MON dynstat_uvel_del2            =   5.5876964295040E-14
(PID.TID 0000.0001) %MON dynstat_vvel_max             =   3.8094609714609E-09
(PID.TID 0000.0001) %MON dynstat_vvel_min             =  -2.8063991855846E-09
(PID.TID 0000.0001) %MON dynstat_vvel_mean            =   2.6615483952449E-14
(PID.TID 0000.0001) %MON dynstat_vvel_sd              =   1.1922824606274E-09
(PID.TID 0000.0001) %MON dynstat_vvel_del2            =   6.6254069243898E-14
(PID.TID 0000.0001) %MON dynstat_wvel_max             =   1.0579040253256E-14
(PID.TID 0000.0001) %MON dynstat_wvel_min             =  -7.6275926683134E-15
(PID.TID 0000.0001) %MON dynstat_wvel_mean            =   5.6076258648301E-28
(PID.TID 0000.0001) %MON dynstat_wvel_sd              =   4.2802054803160E-15
(PID.TID 0000.0001) %MON dynstat_wvel_del2            =   2.9070643724553E-20
(PID.TID 0000.0001) %MON dynstat_theta_max            =   2.0000000000000E+01
(PID.TID 0000.0001) %MON dynstat_theta_min            =   2.0000000000000E+01
(PID.TID 0000.0001) %MON dynstat_theta_mean           =   2.0000000000000E+01
(PID.TID 0000.0001) %MON dynstat_theta_sd             =   0.0000000000000E+00
(PID.TID 0000.0001) %MON dynstat_theta_del2           =   0.0000000000000E+00
(PID.TID 0000.0001) %MON dynstat_salt_max             =   3.0000000000000E+01
(PID.TID 0000.0001) %MON dynstat_salt_min             =   3.0000000000000E+01
(PID.TID 0000.0001) %MON dynstat_salt_mean            =   3.0000000000000E+01
(PID.TID 0000.0001) %MON dynstat_salt_sd              =   0.0000000000000E+00
(PID.TID 0000.0001) %MON dynstat_salt_del2            =   0.0000000000000E+00
(PID.TID 0000.0001) %MON trAdv_CFL_u_max              =   2.7581860364749E-09
(PID.TID 0000.0001) %MON trAdv_CFL_v_max              =   4.1131042690976E-09
(PID.TID 0000.0001) %MON trAdv_CFL_w_max              =   1.1399145961155E-14
(PID.TID 0000.0001) %MON advcfl_uvel_max              =   2.7638784866606E-09
(PID.TID 0000.0001) %MON advcfl_vvel_max              =   4.1142178491777E-09
(PID.TID 0000.0001) %MON advcfl_wvel_max              =   2.2850726947032E-14
(PID.TID 0000.0001) %MON advcfl_W_hf_max              =   0.0000000000000E+00
(PID.TID 0000.0001) %MON pe_b_mean                    =   2.8693545912711E-21
(PID.TID 0000.0001) %MON ke_max                       =   7.5762555173229E-18
(PID.TID 0000.0001) %MON ke_mean                      =   1.0313552467753E-18
(PID.TID 0000.0001) %MON ke_vol                       =   7.5645000000000E+15
(PID.TID 0000.0001) %MON vort_r_min                   =  -1.4280468463596E-13
(PID.TID 0000.0001) %MON vort_r_max                   =   9.6846795951013E-14
(PID.TID 0000.0001) %MON vort_a_mean                  =   8.2300000000000E-05
(PID.TID 0000.0001) %MON vort_a_sd                    =   7.1297555115552E-06
(PID.TID 0000.0001) %MON vort_p_mean                  =   8.3303658536586E-05
(PID.TID 0000.0001) %MON vort_p_sd                    =   1.7411470229333E-05
(PID.TID 0000.0001) %MON surfExpan_theta_mean         =   1.1140398584382E-26
(PID.TID 0000.0001) %MON surfExpan_salt_mean          =   1.6709410384418E-26
(PID.TID 0000.0001) // =======================================================
(PID.TID 0000.0001) // End MONITOR dynamic field statistics
(PID.TID 0000.0001) // =======================================================
 cg2d: Sum(rhs),rhsMax =  -1.43582996033334E-02  2.83359001300938E-10
 cg2d: Sum(rhs),rhsMax =  -1.43822632868743E-02  2.82886892162175E-10
 cg2d: Sum(rhs),rhsMax =  -1.44084636724294E-02  2.82372530706314E-10
 cg2d: Sum(rhs),rhsMax =  -1.44340190569644E-02  2.81872790527168E-10
 cg2d: Sum(rhs),rhsMax =  -1.44608209148796E-02  2.81350293511845E-10
 cg2d: Sum(rhs),rhsMax =  -1.44898819729414E-02  2.80785989388014E-10
 cg2d: Sum(rhs),rhsMax =  -1.45212173375293E-02  2.80180064729388E-10
 cg2d: Sum(rhs),rhsMax =  -1.45541503437305E-02  2.79546063779565E-10
 cg2d: Sum(rhs),rhsMax =  -1.45861315439484E-02  2.78933128632465E-10
 cg2d: Sum(rhs),rhsMax =  -1.46204142356658E-02  2.78279064021997E-10
 cg2d: Sum(rhs),rhsMax =  -1.46570189816471E-02  2.77584077323817E-10
 cg2d: Sum(rhs),rhsMax =  -1.46959680344783E-02  2.76848383817444E-10
 cg2d: Sum(rhs),rhsMax =  -1.47350775825039E-02  2.76113573206519E-10
 cg2d: Sum(rhs),rhsMax =  -1.47747393995188E-02  2.75372359667272E-10
 cg2d: Sum(rhs),rhsMax =  -1.48167819611411E-02  2.74590987171924E-10
 cg2d: Sum(rhs),rhsMax =  -1.48612313856268E-02  2.73769690964505E-10
(PID.TID 0000.0001)      cg2d_init_res =   4.24414695691128E-01
(PID.TID 0000.0001)      cg2d_iters(min,last) =      -1     550
(PID.TID 0000.0001)      cg2d_last_res =   9.66910271860996E-08
(PID.TID 0000.0001) // =======================================================
(PID.TID 0000.0001) // Begin MONITOR dynamic field statistics
(PID.TID 0000.0001) // =======================================================
(PID.TID 0000.0001) %MON time_tsnumber                =                  3392
(PID.TID 0000.0001) %MON time_secondsf                =   1.8316800000000E+07
(PID.TID 0000.0001) %MON dynstat_eta_max              =   3.1510761467420E-09
(PID.TID 0000.0001) %MON dynstat_eta_min              =  -3.9844288308985E-09
(PID.TID 0000.0001) %MON dynstat_eta_mean             =   3.9209152641049E-13
(PID.TID 0000.0001) %MON dynstat_eta_sd               =   1.7080157334456E-09
(PID.TID 0000.0001) %MON dynstat_eta_del2             =   1.3794721685200E-14
(PID.TID 0000.0001) %MON dynstat_uvel_max             =   2.6139912620288E-09
(PID.TID 0000.0001) %MON dynstat_uvel_min             =  -2.0210201134554E-09
(PID.TID 0000.0001) %MON dynstat_uvel_mean            =   1.9803736636245E-13
(PID.TID 0000.0001) %MON dynstat_uvel_sd              =   7.9862615795249E-10
(PID.TID 0000.0001) %MON dynstat_uvel_del2            =   5.4198608121396E-14
(PID.TID 0000.0001) %MON dynstat_vvel_max             =   3.8029199840528E-09
(PID.TID 0000.0001) %MON dynstat_vvel_min             =  -2.9322288654848E-09
(PID.TID 0000.0001) %MON dynstat_vvel_mean            =   2.4022621351866E-14
(PID.TID 0000.0001) %MON dynstat_vvel_sd              =   1.1856077145405E-09
(PID.TID 0000.0001) %MON dynstat_vvel_del2            =   6.8636380793719E-14
(PID.TID 0000.0001) %MON dynstat_wvel_max             =   1.0879509393935E-14
(PID.TID 0000.0001) %MON dynstat_wvel_min             =  -7.7019832733782E-15
(PID.TID 0000.0001) %MON dynstat_wvel_mean            =  -2.2418396033414E-28
(PID.TID 0000.0001) %MON dynstat_wvel_sd              =   4.2588680643328E-15
(PID.TID 0000.0001) %MON dynstat_wvel_del2            =   2.9034897857590E-20
(PID.TID 0000.0001) %MON dynstat_theta_max            =   2.0000000000000E+01
(PID.TID 0000.0001) %MON dynstat_theta_min            =   2.0000000000000E+01
(PID.TID 0000.0001) %MON dynstat_theta_mean           =   2.0000000000000E+01
(PID.TID 0000.0001) %MON dynstat_theta_sd             =   0.0000000000000E+00
(PID.TID 0000.0001) %MON dynstat_theta_del2           =   0.0000000000000E+00
(PID.TID 0000.0001) %MON dynstat_salt_max             =   3.0000000000000E+01
(PID.TID 0000.0001) %MON dynstat_salt_min             =   3.0000000000000E+01
(PID.TID 0000.0001) %MON dynstat_salt_mean            =   3.0000000000000E+01
(PID.TID 0000.0001) %MON dynstat_salt_sd              =   0.0000000000000E+00
(PID.TID 0000.0001) %MON dynstat_salt_del2            =   0.0000000000000E+00
(PID.TID 0000.0001) %MON trAdv_CFL_u_max              =   2.8204699348226E-09
(PID.TID 0000.0001) %MON trAdv_CFL_v_max              =   4.1092628317886E-09
(PID.TID 0000.0001) %MON trAdv_CFL_w_max              =   1.1734248887563E-14
(PID.TID 0000.0001) %MON advcfl_uvel_max              =   2.8231105629911E-09
(PID.TID 0000.0001) %MON advcfl_vvel_max              =   4.1071535827771E-09
(PID.TID 0000.0001) %MON advcfl_wvel_max              =   2.3499740290900E-14
(PID.TID 0000.0001) %MON advcfl_W_hf_max              =   0.0000000000000E+00
(PID.TID 0000.0001) %MON pe_b_mean                    =   2.8618888593441E-21
(PID.TID 0000.0001) %MON ke_max                       =   7.5056056118974E-18
(PID.TID 0000.0001) %MON ke_mean                      =   1.0175813232139E-18
(PID.TID 0000.0001) %MON ke_vol                       =   7.5645000000000E+15
(PID.TID 0000.0001) %MON vort_r_min                   =  -1.4005244605233E-13
(PID.TID 0000.0001) %MON vort_r_max                   =   1.0789291296798E-13
(PID.TID 0000.0001) %MON vort_a_mean                  =   8.2300000000000E-05
(PID.TID 0000.0001) %MON vort_a_sd                    =   7.1297555115604E-06
(PID.TID 0000.0001) %MON vort_p_mean                  =   8.3303658536585E-05
(PID.TID 0000.0001) %MON vort_p_sd                    =   1.7411470229336E-05
(PID.TID 0000.0001) %MON surfExpan_theta_mean         =  -4.3965540040715E-27
(PID.TID 0000.0001) %MON surfExpan_salt_mean          =  -6.6021787537841E-27
(PID.TID 0000.0001) // =======================================================
(PID.TID 0000.0001) // End MONITOR dynamic field statistics
(PID.TID 0000.0001) // =======================================================
 cg2d: Sum(rhs),rhsMax =  -1.49081156394990E-02  2.72908713954780E-10
 cg2d: Sum(rhs),rhsMax =  -1.49539020198595E-02  2.72073108647804E-10
 cg2d: Sum(rhs),rhsMax =  -1.50015916149469E-02  2.71208193368046E-10
 cg2d: Sum(rhs),rhsMax =  -1.49999806108312E-02  2.71237318122880E-10
 cg2d: Sum(rhs),rhsMax =  -1.49692441336686E-02  2.71794248957011E-10
 cg2d: Sum(rhs),rhsMax =  -1.49411266866331E-02  2.72305731002777E-10
 cg2d: Sum(rhs),rhsMax =  -1.49152157596052E-02  2.72778781754991E-10
 cg2d: Sum(rhs),rhsMax =  -1.48922067778570E-02  2.73200232084499E-10
 cg2d: Sum(rhs),rhsMax =  -1.48717750888158E-02  2.73575567483097E-10
 cg2d: Sum(rhs),rhsMax =  -1.48534663316228E-02  2.73912781342161E-10
 cg2d: Sum(rhs),rhsMax =  -1.48380007957293E-02  2.74198276292815E-10
 cg2d: Sum(rhs),rhsMax =  -1.48251111936495E-02  2.74436674025660E-10
 cg2d: Sum(rhs),rhsMax =  -1.48142542386547E-02  2.74637799041813E-10
 cg2d: Sum(rhs),rhsMax =  -1.48062005725134E-02  2.74787183168460E-10
 cg2d: Sum(rhs),rhsMax =  -1.48007552182652E-02  2.74888278231258E-10
 cg2d: Sum(rhs),rhsMax =  -1.47972505845928E-02  2.74953381761679E-10
(PID.TID 0000.0001)      cg2d_init_res =   4.17266773585505E-01
(PID.TID 0000.0001)      cg2d_iters(min,last) =      -1     547
(PID.TID 0000.0001)      cg2d_last_res =   9.95641049633572E-08
(PID.TID 0000.0001) // =======================================================
(PID.TID 0000.0001) // Begin MONITOR dynamic field statistics
(PID.TID 0000.0001) // =======================================================
(PID.TID 0000.0001) %MON time_tsnumber                =                  3408
(PID.TID 0000.0001) %MON time_secondsf                =   1.8403200000000E+07
(PID.TID 0000.0001) %MON dynstat_eta_max              =   3.5215941536554E-09
(PID.TID 0000.0001) %MON dynstat_eta_min              =  -3.5539501979495E-09
(PID.TID 0000.0001) %MON dynstat_eta_mean             =   3.9209146689090E-13
(PID.TID 0000.0001) %MON dynstat_eta_sd               =   1.7065988151236E-09
(PID.TID 0000.0001) %MON dynstat_eta_del2             =   1.3768634760566E-14
(PID.TID 0000.0001) %MON dynstat_uvel_max             =   2.6179681460079E-09
(PID.TID 0000.0001) %MON dynstat_uvel_min             =  -2.0587261212082E-09
(PID.TID 0000.0001) %MON dynstat_uvel_mean            =   1.8527295280529E-13
(PID.TID 0000.0001) %MON dynstat_uvel_sd              =   7.8062102002100E-10
(PID.TID 0000.0001) %MON dynstat_uvel_del2            =   5.2760319733468E-14
(PID.TID 0000.0001) %MON dynstat_vvel_max             =   3.7373238530039E-09
(PID.TID 0000.0001) %MON dynstat_vvel_min             =  -3.0162190736303E-09
(PID.TID 0000.0001) %MON dynstat_vvel_mean            =   2.1142435610173E-14
(PID.TID 0000.0001) %MON dynstat_vvel_sd              =   1.1858953427410E-09
(PID.TID 0000.0001) %MON dynstat_vvel_del2            =   7.0387781257462E-14
(PID.TID 0000.0001) %MON dynstat_wvel_max             =   1.0988782139232E-14
(PID.TID 0000.0001) %MON dynstat_wvel_min             =  -7.5842355584665E-15
(PID.TID 0000.0001) %MON dynstat_wvel_mean            =   3.4673378136009E-28
(PID.TID 0000.0001) %MON dynstat_wvel_sd              =   4.2312055608497E-15
(PID.TID 0000.0001) %MON dynstat_wvel_del2            =   2.8851624596714E-20
(PID.TID 0000.0001) %MON dynstat_theta_max            =   2.0000000000000E+01
(PID.TID 0000.0001) %MON dynstat_theta_min            =   2.0000000000000E+01
(PID.TID 0000.0001) %MON dynstat_theta_mean           =   2.0000000000000E+01
(PID.TID 0000.0001) %MON dynstat_theta_sd             =   0.0000000000000E+00
(PID.TID 0000.0001) %MON dynstat_theta_del2           =   0.0000000000000E+00
(PID.TID 0000.0001) %MON dynstat_salt_max             =   3.0000000000000E+01
(PID.TID 0000.0001) %MON dynstat_salt_min             =   3.0000000000000E+01
(PID.TID 0000.0001) %MON dynstat_salt_mean            =   3.0000000000000E+01
(PID.TID 0000.0001) %MON dynstat_salt_sd              =   0.0000000000000E+00
(PID.TID 0000.0001) %MON dynstat_salt_del2            =   0.0000000000000E+00
(PID.TID 0000.0001) %MON trAdv_CFL_u_max              =   2.8290351435100E-09
(PID.TID 0000.0001) %MON trAdv_CFL_v_max              =   4.0430394286379E-09
(PID.TID 0000.0001) %MON trAdv_CFL_w_max              =   1.1867472919569E-14
(PID.TID 0000.0001) %MON advcfl_uvel_max              =   2.8274055976886E-09
(PID.TID 0000.0001) %MON advcfl_vvel_max              =   4.0363097612442E-09
(PID.TID 0000.0001) %MON advcfl_wvel_max              =   2.3735769420741E-14
(PID.TID 0000.0001) %MON advcfl_W_hf_max              =   0.0000000000000E+00
(PID.TID 0000.0001) %MON pe_b_mean                    =   2.8571425557962E-21
(PID.TID 0000.0001) %MON ke_max                       =   7.2092551795435E-18
(PID.TID 0000.0001) %MON ke_mean                      =   1.0037615020804E-18
(PID.TID 0000.0001) %MON ke_vol                       =   7.5645000000000E+15
(PID.TID 0000.0001) %MON vort_r_min                   =  -1.3414352469346E-13
(PID.TID 0000.0001) %MON vort_r_max                   =   1.1463702984806E-13
(PID.TID 0000.0001) %MON vort_a_mean                  =   8.2299999999999E-05
(PID.TID 0000.0001) %MON vort_a_sd                    =   7.1297555115678E-06
(PID.TID 0000.0001) %MON vort_p_mean                  =   8.3303658536584E-05
(PID.TID 0000.0001) %MON vort_p_sd                    =   1.7411470229350E-05
(PID.TID 0000.0001) %MON surfExpan_theta_mean         =   6.9344346217218E-27
(PID.TID 0000.0001) %MON surfExpan_salt_mean          =   1.0389813962699E-26
(PID.TID 0000.0001) // =======================================================
(PID.TID 0000.0001) // End MONITOR dynamic field statistics
(PID.TID 0000.0001) // =======================================================
 cg2d: Sum(rhs),rhsMax =  -1.47965273479223E-02  2.74966818421627E-10
 cg2d: Sum(rhs),rhsMax =  -1.47984726977955E-02  2.74930669887339E-10
 cg2d: Sum(rhs),rhsMax =  -1.48022700352868E-02  2.74860137552186E-10
 cg2d: Sum(rhs),rhsMax =  -1.48088445041278E-02  2.74738108668252E-10
 cg2d: Sum(rhs),rhsMax =  -1.48181704752144E-02  2.74565196429720E-10
 cg2d: Sum(rhs),rhsMax =  -1.48292675338714E-02  2.74359730347062E-10
 cg2d: Sum(rhs),rhsMax =  -1.48431549527273E-02  2.74103032962156E-10
 cg2d: Sum(rhs),rhsMax =  -1.48598434744390E-02  2.73795195259972E-10
 cg2d: Sum(rhs),rhsMax =  -1.48783370455161E-02  2.73454868873794E-10
 cg2d: Sum(rhs),rhsMax =  -1.48996006096361E-02  2.73064612471089E-10
 cg2d: Sum(rhs),rhsMax =  -1.49237027456808E-02  2.72623604278118E-10
 cg2d: Sum(rhs),rhsMax =  -1.49497120385953E-02  2.72149295536998E-10
 cg2d: Sum(rhs),rhsMax =  -1.49784634647714E-02  2.71626898432806E-10
 cg2d: Sum(rhs),rhsMax =  -1.50101090188192E-02  2.71054230467971E-10
 cg2d: Sum(rhs),rhsMax =  -1.49646043055330E-02  2.71878457135684E-10
 cg2d: Sum(rhs),rhsMax =  -1.47976810108354E-02  2.74945344754895E-10
(PID.TID 0000.0001)      cg2d_init_res =   4.10621260712161E-01
(PID.TID 0000.0001)      cg2d_iters(min,last) =      -1     539
(PID.TID 0000.0001)      cg2d_last_res =   9.41779914085293E-08
(PID.TID 0000.0001) // =======================================================
(PID.TID 0000.0001) // Begin MONITOR dynamic field statistics
(PID.TID 0000.0001) // =======================================================
(PID.TID 0000.0001) %MON time_tsnumber                =                  3424
(PID.TID 0000.0001) %MON time_secondsf                =   1.8489600000000E+07
(PID.TID 0000.0001) %MON dynstat_eta_max              =   3.8522676550759E-09
(PID.TID 0000.0001) %MON dynstat_eta_min              =  -3.5128276243885E-09
(PID.TID 0000.0001) %MON dynstat_eta_mean             =   3.9209141264278E-13
(PID.TID 0000.0001) %MON dynstat_eta_sd               =   1.7049684588550E-09
(PID.TID 0000.0001) %MON dynstat_eta_del2             =   1.3797794451528E-14
(PID.TID 0000.0001) %MON dynstat_uvel_max             =   2.5635543527297E-09
(PID.TID 0000.0001) %MON dynstat_uvel_min             =  -2.0448222006629E-09
(PID.TID 0000.0001) %MON dynstat_uvel_mean            =   1.6292870533776E-13
(PID.TID 0000.0001) %MON dynstat_uvel_sd              =   7.5390414597457E-10
(PID.TID 0000.0001) %MON dynstat_uvel_del2            =   5.1868616133578E-14
(PID.TID 0000.0001) %MON dynstat_vvel_max             =   3.6172085321129E-09
(PID.TID 0000.0001) %MON dynstat_vvel_min             =  -3.0527069625863E-09
(PID.TID 0000.0001) %MON dynstat_vvel_mean            =   1.8143039812116E-14
(PID.TID 0000.0001) %MON dynstat_vvel_sd              =   1.1913672837131E-09
(PID.TID 0000.0001) %MON dynstat_vvel_del2            =   7.1289836260087E-14
(PID.TID 0000.0001) %MON dynstat_wvel_max             =   1.0902228987919E-14
(PID.TID 0000.0001) %MON dynstat_wvel_min             =  -7.2828788061363E-15
(PID.TID 0000.0001) %MON dynstat_wvel_mean            =  -9.3470359955659E-29
(PID.TID 0000.0001) %MON dynstat_wvel_sd              =   4.2001463933269E-15
(PID.TID 0000.0001) %MON dynstat_wvel_del2            =   2.8516345486722E-20
(PID.TID 0000.0001) %MON dynstat_theta_max            =   2.0000000000000E+01
(PID.TID 0000.0001) %MON dynstat_theta_min            =   2.0000000000000E+01
(PID.TID 0000.0001) %MON dynstat_theta_mean           =   2.0000000000000E+01
(PID.TID 0000.0001) %MON dynstat_theta_sd             =   0.0000000000000E+00
(PID.TID 0000.0001) %MON dynstat_theta_del2           =   0.0000000000000E+00
(PID.TID 0000.0001) %MON dynstat_salt_max             =   3.0000000000000E+01
(PID.TID 0000.0001) %MON dynstat_salt_min             =   3.0000000000000E+01
(PID.TID 0000.0001) %MON dynstat_salt_mean            =   3.0000000000000E+01
(PID.TID 0000.0001) %MON dynstat_salt_sd              =   0.0000000000000E+00
(PID.TID 0000.0001) %MON dynstat_salt_del2            =   0.0000000000000E+00
(PID.TID 0000.0001) %MON trAdv_CFL_u_max              =   2.7742702207486E-09
(PID.TID 0000.0001) %MON trAdv_CFL_v_max              =   3.9159500268500E-09
(PID.TID 0000.0001) %MON trAdv_CFL_w_max              =   1.1786825547788E-14
(PID.TID 0000.0001) %MON advcfl_uvel_max              =   2.7686387009481E-09
(PID.TID 0000.0001) %MON advcfl_vvel_max              =   3.9065852146819E-09
(PID.TID 0000.0001) %MON advcfl_wvel_max              =   2.3548814613905E-14
(PID.TID 0000.0001) %MON advcfl_W_hf_max              =   0.0000000000000E+00
(PID.TID 0000.0001) %MON pe_b_mean                    =   2.8516861650370E-21
(PID.TID 0000.0001) %MON ke_max                       =   6.7193356321651E-18
(PID.TID 0000.0001) %MON ke_mean                      =   9.8982364991700E-19
(PID.TID 0000.0001) %MON ke_vol                       =   7.5645000000000E+15
(PID.TID 0000.0001) %MON vort_r_min                   =  -1.2533377998899E-13
(PID.TID 0000.0001) %MON vort_r_max                   =   1.1662623219817E-13
(PID.TID 0000.0001) %MON vort_a_mean                  =   8.2300000000000E-05
(PID.TID 0000.0001) %MON vort_a_sd                    =   7.1297555115624E-06
(PID.TID 0000.0001) %MON vort_p_mean                  =   8.3303658536585E-05
(PID.TID 0000.0001) %MON vort_p_sd                    =   1.7411470229370E-05
(PID.TID 0000.0001) %MON surfExpan_theta_mean         =  -1.8462194154800E-27
(PID.TID 0000.0001) %MON surfExpan_salt_mean          =  -2.7864388640278E-27
(PID.TID 0000.0001) // =======================================================
(PID.TID 0000.0001) // End MONITOR dynamic field statistics
(PID.TID 0000.0001) // =======================================================
 cg2d: Sum(rhs),rhsMax =  -1.46362752209067E-02  2.77977383180235E-10
 cg2d: Sum(rhs),rhsMax =  -1.44801754729905E-02  2.80974044463372E-10
 cg2d: Sum(rhs),rhsMax =  -1.43291817358509E-02  2.83934806576264E-10
 cg2d: Sum(rhs),rhsMax =  -1.41831047060990E-02  2.86859154205719E-10
 cg2d: Sum(rhs),rhsMax =  -1.40417651281304E-02  2.89746578217591E-10
 cg2d: Sum(rhs),rhsMax =  -1.39049931013682E-02  2.92596575990748E-10
 cg2d: Sum(rhs),rhsMax =  -1.37726276044195E-02  2.95408651606422E-10
 cg2d: Sum(rhs),rhsMax =  -1.36445158147683E-02  2.98182315860632E-10
 cg2d: Sum(rhs),rhsMax =  -1.35205127265950E-02  3.00917086383932E-10
 cg2d: Sum(rhs),rhsMax =  -1.34004806664454E-02  3.03612487726242E-10
 cg2d: Sum(rhs),rhsMax =  -1.32842887842431E-02  3.06268051458292E-10
 cg2d: Sum(rhs),rhsMax =  -1.31718127701485E-02  3.08883316258197E-10
 cg2d: Sum(rhs),rhsMax =  -1.30627308914744E-02  3.11462680380947E-10
 cg2d: Sum(rhs),rhsMax =  -1.29565811519420E-02  3.14014406377158E-10
 cg2d: Sum(rhs),rhsMax =  -1.28538421984484E-02  3.16524276206128E-10
 cg2d: Sum(rhs),rhsMax =  -1.27544105242984E-02  3.18991854559370E-10
(PID.TID 0000.0001)      cg2d_init_res =   3.47835634162572E-01
(PID.TID 0000.0001)      cg2d_iters(min,last) =      -1     540
(PID.TID 0000.0001)      cg2d_last_res =   8.59315217230491E-08
(PID.TID 0000.0001) // =======================================================
(PID.TID 0000.0001) // Begin MONITOR dynamic field statistics
(PID.TID 0000.0001) // =======================================================
(PID.TID 0000.0001) %MON time_tsnumber                =                  3440
(PID.TID 0000.0001) %MON time_secondsf                =   1.8576000000000E+07
(PID.TID 0000.0001) %MON dynstat_eta_max              =   4.1301460163769E-09
(PID.TID 0000.0001) %MON dynstat_eta_min              =  -3.7812239731883E-09
(PID.TID 0000.0001) %MON dynstat_eta_mean             =   3.9209136955670E-13
(PID.TID 0000.0001) %MON dynstat_eta_sd               =   1.7019586962928E-09
(PID.TID 0000.0001) %MON dynstat_eta_del2             =   1.3865103714587E-14
(PID.TID 0000.0001) %MON dynstat_uvel_max             =   2.4544607983104E-09
(PID.TID 0000.0001) %MON dynstat_uvel_min             =  -1.9822806805371E-09
(PID.TID 0000.0001) %MON dynstat_uvel_mean            =   1.3221692560000E-13
(PID.TID 0000.0001) %MON dynstat_uvel_sd              =   7.2199184078171E-10
(PID.TID 0000.0001) %MON dynstat_uvel_del2            =   5.1708219915288E-14
(PID.TID 0000.0001) %MON dynstat_vvel_max             =   3.4433235795111E-09
(PID.TID 0000.0001) %MON dynstat_vvel_min             =  -3.0403993152465E-09
(PID.TID 0000.0001) %MON dynstat_vvel_mean            =   1.5184459502798E-14
(PID.TID 0000.0001) %MON dynstat_vvel_sd              =   1.1992417650427E-09
(PID.TID 0000.0001) %MON dynstat_vvel_del2            =   7.1249186142632E-14
(PID.TID 0000.0001) %MON dynstat_wvel_max             =   1.0617464217266E-14
(PID.TID 0000.0001) %MON dynstat_wvel_min             =  -6.8182583212728E-15
(PID.TID 0000.0001) %MON dynstat_wvel_mean            =  -4.3162646747929E-28
(PID.TID 0000.0001) %MON dynstat_wvel_sd              =   4.1693309694476E-15
(PID.TID 0000.0001) %MON dynstat_wvel_del2            =   2.8092296500376E-20
(PID.TID 0000.0001) %MON dynstat_theta_max            =   2.0000000000000E+01
(PID.TID 0000.0001) %MON dynstat_theta_min            =   2.0000000000000E+01
(PID.TID 0000.0001) %MON dynstat_theta_mean           =   2.0000000000000E+01
(PID.TID 0000.0001) %MON dynstat_theta_sd             =   0.0000000000000E+00
(PID.TID 0000.0001) %MON dynstat_theta_del2           =   0.0000000000000E+00
(PID.TID 0000.0001) %MON dynstat_salt_max             =   3.0000000000000E+01
(PID.TID 0000.0001) %MON dynstat_salt_min             =   3.0000000000000E+01
(PID.TID 0000.0001) %MON dynstat_salt_mean            =   3.0000000000000E+01
(PID.TID 0000.0001) %MON dynstat_salt_sd              =   0.0000000000000E+00
(PID.TID 0000.0001) %MON dynstat_salt_del2            =   0.0000000000000E+00
(PID.TID 0000.0001) %MON trAdv_CFL_u_max              =   2.6600364357629E-09
(PID.TID 0000.0001) %MON trAdv_CFL_v_max              =   3.7322898210985E-09
(PID.TID 0000.0001) %MON trAdv_CFL_w_max              =   1.1492490278231E-14
(PID.TID 0000.0001) %MON advcfl_uvel_max              =   2.6508176621753E-09
(PID.TID 0000.0001) %MON advcfl_vvel_max              =   3.7187894658720E-09
(PID.TID 0000.0001) %MON advcfl_wvel_max              =   2.2933722709295E-14
(PID.TID 0000.0001) %MON advcfl_W_hf_max              =   0.0000000000000E+00
(PID.TID 0000.0001) %MON pe_b_mean                    =   2.8416269500275E-21
(PID.TID 0000.0001) %MON ke_max                       =   6.0592858649930E-18
(PID.TID 0000.0001) %MON ke_mean                      =   9.7574389530087E-19
(PID.TID 0000.0001) %MON ke_vol                       =   7.5645000000000E+15
(PID.TID 0000.0001) %MON vort_r_min                   =  -1.1674555132346E-13
(PID.TID 0000.0001) %MON vort_r_max                   =   1.1378335528029E-13
(PID.TID 0000.0001) %MON vort_a_mean                  =   8.2299999999999E-05
(PID.TID 0000.0001) %MON vort_a_sd                    =   7.1297555115694E-06
(PID.TID 0000.0001) %MON vort_p_mean                  =   8.3303658536584E-05
(PID.TID 0000.0001) %MON vort_p_sd                    =   1.7411470229405E-05
(PID.TID 0000.0001) %MON surfExpan_theta_mean         =  -8.5934991709683E-27
(PID.TID 0000.0001) %MON surfExpan_salt_mean          =  -1.2881783325875E-26
(PID.TID 0000.0001) // =======================================================
(PID.TID 0000.0001) // End MONITOR dynamic field statistics
(PID.TID 0000.0001) // =======================================================
 cg2d: Sum(rhs),rhsMax =  -1.26581875530559E-02  3.21416713186749E-10
 cg2d: Sum(rhs),rhsMax =  -1.25650793827187E-02  3.23798432193011E-10
 cg2d: Sum(rhs),rhsMax =  -1.24749966065598E-02  3.26136599151778E-10
 cg2d: Sum(rhs),rhsMax =  -1.23878540341170E-02  3.28430809499028E-10
 cg2d: Sum(rhs),rhsMax =  -1.23035704694642E-02  3.30680666620570E-10
 cg2d: Sum(rhs),rhsMax =  -1.22220685358264E-02  3.32885782044834E-10
 cg2d: Sum(rhs),rhsMax =  -1.21432744430075E-02  3.35045775026158E-10
 cg2d: Sum(rhs),rhsMax =  -1.20671178462594E-02  3.37160273286796E-10
 cg2d: Sum(rhs),rhsMax =  -1.19935316538276E-02  3.39228912713554E-10
 cg2d: Sum(rhs),rhsMax =  -1.19224519377967E-02  3.41251336961393E-10
 cg2d: Sum(rhs),rhsMax =  -1.18538176165047E-02  3.43227199682463E-10
 cg2d: Sum(rhs),rhsMax =  -1.17875705074598E-02  3.45156161324965E-10
 cg2d: Sum(rhs),rhsMax =  -1.17236551339514E-02  3.47037891468329E-10
 cg2d: Sum(rhs),rhsMax =  -1.16620185479856E-02  3.48872068002944E-10
 cg2d: Sum(rhs),rhsMax =  -1.16026102710462E-02  3.50658377816153E-10
 cg2d: Sum(rhs),rhsMax =  -1.15453822006184E-02  3.52396516263296E-10
(PID.TID 0000.0001)      cg2d_init_res =   3.09804039421502E-01
(PID.TID 0000.0001)      cg2d_iters(min,last) =      -1     547
(PID.TID 0000.0001)      cg2d_last_res =   9.45031987613719E-08
(PID.TID 0000.0001) // =======================================================
(PID.TID 0000.0001) // Begin MONITOR dynamic field statistics
(PID.TID 0000.0001) // =======================================================
(PID.TID 0000.0001) %MON time_tsnumber                =                  3456
(PID.TID 0000.0001) %MON time_secondsf                =   1.8662400000000E+07
(PID.TID 0000.0001) %MON dynstat_eta_max              =   4.3444339806338E-09
(PID.TID 0000.0001) %MON dynstat_eta_min              =  -3.9679399087967E-09
(PID.TID 0000.0001) %MON dynstat_eta_mean             =   3.9209131164073E-13
(PID.TID 0000.0001) %MON dynstat_eta_sd               =   1.6965223183891E-09
(PID.TID 0000.0001) %MON dynstat_eta_del2             =   1.3948402135665E-14
(PID.TID 0000.0001) %MON dynstat_uvel_max             =   2.3012682371398E-09
(PID.TID 0000.0001) %MON dynstat_uvel_min             =  -1.8783501292972E-09
(PID.TID 0000.0001) %MON dynstat_uvel_mean            =   9.4791379643908E-14
(PID.TID 0000.0001) %MON dynstat_uvel_sd              =   6.8966279716054E-10
(PID.TID 0000.0001) %MON dynstat_uvel_del2            =   5.2280709021665E-14
(PID.TID 0000.0001) %MON dynstat_vvel_max             =   3.2188226220970E-09
(PID.TID 0000.0001) %MON dynstat_vvel_min             =  -2.9799341924055E-09
(PID.TID 0000.0001) %MON dynstat_vvel_mean            =   1.2410243052923E-14
(PID.TID 0000.0001) %MON dynstat_vvel_sd              =   1.2063631310974E-09
(PID.TID 0000.0001) %MON dynstat_vvel_del2            =   7.0297008389571E-14
(PID.TID 0000.0001) %MON dynstat_wvel_max             =   1.0144636952703E-14
(PID.TID 0000.0001) %MON dynstat_wvel_min             =  -6.2187903493438E-15
(PID.TID 0000.0001) %MON dynstat_wvel_mean            =   3.2628745118563E-28
(PID.TID 0000.0001) %MON dynstat_wvel_sd              =   4.1423013900284E-15
(PID.TID 0000.0001) %MON dynstat_wvel_del2            =   2.7627634363760E-20
(PID.TID 0000.0001) %MON dynstat_theta_max            =   2.0000000000000E+01
(PID.TID 0000.0001) %MON dynstat_theta_min            =   2.0000000000000E+01
(PID.TID 0000.0001) %MON dynstat_theta_mean           =   2.0000000000000E+01
(PID.TID 0000.0001) %MON dynstat_theta_sd             =   0.0000000000000E+00
(PID.TID 0000.0001) %MON dynstat_theta_del2           =   0.0000000000000E+00
(PID.TID 0000.0001) %MON dynstat_salt_max             =   3.0000000000000E+01
(PID.TID 0000.0001) %MON dynstat_salt_min             =   3.0000000000000E+01
(PID.TID 0000.0001) %MON dynstat_salt_mean            =   3.0000000000000E+01
(PID.TID 0000.0001) %MON dynstat_salt_sd              =   0.0000000000000E+00
(PID.TID 0000.0001) %MON dynstat_salt_del2            =   0.0000000000000E+00
(PID.TID 0000.0001) %MON trAdv_CFL_u_max              =   2.4972588428789E-09
(PID.TID 0000.0001) %MON trAdv_CFL_v_max              =   3.4934790661370E-09
(PID.TID 0000.0001) %MON trAdv_CFL_w_max              =   1.0993242111623E-14
(PID.TID 0000.0001) %MON advcfl_uvel_max              =   2.4853696961110E-09
(PID.TID 0000.0001) %MON advcfl_vvel_max              =   3.4763284318648E-09
(PID.TID 0000.0001) %MON advcfl_wvel_max              =   2.1912415817837E-14
(PID.TID 0000.0001) %MON advcfl_W_hf_max              =   0.0000000000000E+00
(PID.TID 0000.0001) %MON pe_b_mean                    =   2.8235025560480E-21
(PID.TID 0000.0001) %MON ke_max                       =   5.2724300119714E-18
(PID.TID 0000.0001) %MON ke_mean                      =   9.6154870490751E-19
(PID.TID 0000.0001) %MON ke_vol                       =   7.5645000000000E+15
(PID.TID 0000.0001) %MON vort_r_min                   =  -1.3295907895443E-13
(PID.TID 0000.0001) %MON vort_r_max                   =   1.0637618131014E-13
(PID.TID 0000.0001) %MON vort_a_mean                  =   8.2300000000000E-05
(PID.TID 0000.0001) %MON vort_a_sd                    =   7.1297555115610E-06
(PID.TID 0000.0001) %MON vort_p_mean                  =   8.3303658536585E-05
(PID.TID 0000.0001) %MON vort_p_sd                    =   1.7411470229441E-05
(PID.TID 0000.0001) %MON surfExpan_theta_mean         =   6.5574039029877E-27
(PID.TID 0000.0001) %MON surfExpan_salt_mean          =   9.8109829210915E-27
(PID.TID 0000.0001) // =======================================================
(PID.TID 0000.0001) // End MONITOR dynamic field statistics
(PID.TID 0000.0001) // =======================================================
 cg2d: Sum(rhs),rhsMax =  -1.14902041973252E-02  3.54088784484775E-10
 cg2d: Sum(rhs),rhsMax =  -1.14367765429413E-02  3.55742930926234E-10
 cg2d: Sum(rhs),rhsMax =  -1.13854138335860E-02  3.57347781573714E-10
 cg2d: Sum(rhs),rhsMax =  -1.13360757786554E-02  3.58903064968442E-10
 cg2d: Sum(rhs),rhsMax =  -1.12887240436878E-02  3.60408518711268E-10
 cg2d: Sum(rhs),rhsMax =  -1.12433221401880E-02  3.61863889471750E-10
 cg2d: Sum(rhs),rhsMax =  -1.11998353777503E-02  3.63268933078630E-10
 cg2d: Sum(rhs),rhsMax =  -1.11582308010752E-02  3.64623414526275E-10
 cg2d: Sum(rhs),rhsMax =  -1.11184771359759E-02  3.65927108057623E-10
 cg2d: Sum(rhs),rhsMax =  -1.10805446930050E-02  3.67179797173352E-10
 cg2d: Sum(rhs),rhsMax =  -1.10444053455398E-02  3.68381274702110E-10
 cg2d: Sum(rhs),rhsMax =  -1.10100324818472E-02  3.69531342817176E-10
 cg2d: Sum(rhs),rhsMax =  -1.09774009277969E-02  3.70629813089532E-10
 cg2d: Sum(rhs),rhsMax =  -1.09464869368318E-02  3.71676506515932E-10
 cg2d: Sum(rhs),rhsMax =  -1.09172681072168E-02  3.72671253551467E-10
 cg2d: Sum(rhs),rhsMax =  -1.08897233787083E-02  3.73613894151441E-10
(PID.TID 0000.0001)      cg2d_init_res =   2.88493941703566E-01
(PID.TID 0000.0001)      cg2d_iters(min,last) =      -1     547
(PID.TID 0000.0001)      cg2d_last_res =   9.81535975701138E-08
(PID.TID 0000.0001) // =======================================================
(PID.TID 0000.0001) // Begin MONITOR dynamic field statistics
(PID.TID 0000.0001) // =======================================================
(PID.TID 0000.0001) %MON time_tsnumber                =                  3472
(PID.TID 0000.0001) %MON time_secondsf                =   1.8748800000000E+07
(PID.TID 0000.0001) %MON dynstat_eta_max              =   4.4858830687240E-09
(PID.TID 0000.0001) %MON dynstat_eta_min              =  -4.0651473642626E-09
(PID.TID 0000.0001) %MON dynstat_eta_mean             =   3.9209126245866E-13
(PID.TID 0000.0001) %MON dynstat_eta_sd               =   1.6879711646559E-09
(PID.TID 0000.0001) %MON dynstat_eta_del2             =   1.4024496449145E-14
(PID.TID 0000.0001) %MON dynstat_uvel_max             =   2.1080489524875E-09
(PID.TID 0000.0001) %MON dynstat_uvel_min             =  -1.7426610220127E-09
(PID.TID 0000.0001) %MON dynstat_uvel_mean            =   5.2655137531321E-14
(PID.TID 0000.0001) %MON dynstat_uvel_sd              =   6.6229620581559E-10
(PID.TID 0000.0001) %MON dynstat_uvel_del2            =   5.3403856784240E-14
(PID.TID 0000.0001) %MON dynstat_vvel_max             =   2.9519894084488E-09
(PID.TID 0000.0001) %MON dynstat_vvel_min             =  -2.8725540376355E-09
(PID.TID 0000.0001) %MON dynstat_vvel_mean            =   9.9402250401761E-15
(PID.TID 0000.0001) %MON dynstat_vvel_sd              =   1.2098405623105E-09
(PID.TID 0000.0001) %MON dynstat_vvel_del2            =   6.8581891520931E-14
(PID.TID 0000.0001) %MON dynstat_wvel_max             =   9.5018112342138E-15
(PID.TID 0000.0001) %MON dynstat_wvel_min             =  -5.5207680532687E-15
(PID.TID 0000.0001) %MON dynstat_wvel_mean            =   3.3587148593607E-29
(PID.TID 0000.0001) %MON dynstat_wvel_sd              =   4.1216693581232E-15
(PID.TID 0000.0001) %MON dynstat_wvel_del2            =   2.7186883992971E-20
(PID.TID 0000.0001) %MON dynstat_theta_max            =   2.0000000000000E+01
(PID.TID 0000.0001) %MON dynstat_theta_min            =   2.0000000000000E+01
(PID.TID 0000.0001) %MON dynstat_theta_mean           =   2.0000000000000E+01
(PID.TID 0000.0001) %MON dynstat_theta_sd             =   0.0000000000000E+00
(PID.TID 0000.0001) %MON dynstat_theta_del2           =   0.0000000000000E+00
(PID.TID 0000.0001) %MON dynstat_salt_max             =   3.0000000000000E+01
(PID.TID 0000.0001) %MON dynstat_salt_min             =   3.0000000000000E+01
(PID.TID 0000.0001) %MON dynstat_salt_mean            =   3.0000000000000E+01
(PID.TID 0000.0001) %MON dynstat_salt_sd              =   0.0000000000000E+00
(PID.TID 0000.0001) %MON dynstat_salt_del2            =   0.0000000000000E+00
(PID.TID 0000.0001) %MON trAdv_CFL_u_max              =   2.2910547492395E-09
(PID.TID 0000.0001) %MON trAdv_CFL_v_max              =   3.2069845398657E-09
(PID.TID 0000.0001) %MON trAdv_CFL_w_max              =   1.0309518251994E-14
(PID.TID 0000.0001) %MON advcfl_uvel_max              =   2.2766928686865E-09
(PID.TID 0000.0001) %MON advcfl_vvel_max              =   3.1881485611247E-09
(PID.TID 0000.0001) %MON advcfl_wvel_max              =   2.0523912265902E-14
(PID.TID 0000.0001) %MON advcfl_W_hf_max              =   0.0000000000000E+00
(PID.TID 0000.0001) %MON pe_b_mean                    =   2.7951111171230E-21
(PID.TID 0000.0001) %MON ke_max                       =   4.4184063744180E-18
(PID.TID 0000.0001) %MON ke_mean                      =   9.4730866069840E-19
(PID.TID 0000.0001) %MON ke_vol                       =   7.5645000000000E+15
(PID.TID 0000.0001) %MON vort_r_min                   =  -1.4469335963402E-13
(PID.TID 0000.0001) %MON vort_r_max                   =   9.8641214528814E-14
(PID.TID 0000.0001) %MON vort_a_mean                  =   8.2300000000000E-05
(PID.TID 0000.0001) %MON vort_a_sd                    =   7.1297555115531E-06
(PID.TID 0000.0001) %MON vort_p_mean                  =   8.3303658536586E-05
(PID.TID 0000.0001) %MON vort_p_sd                    =   1.7411470229483E-05
(PID.TID 0000.0001) %MON surfExpan_theta_mean         =   6.7785702577506E-28
(PID.TID 0000.0001) %MON surfExpan_salt_mean          =   9.7962783977743E-28
(PID.TID 0000.0001) // =======================================================
(PID.TID 0000.0001) // End MONITOR dynamic field statistics
(PID.TID 0000.0001) // =======================================================
 cg2d: Sum(rhs),rhsMax =  -1.08638329873430E-02  3.74504277781992E-10
 cg2d: Sum(rhs),rhsMax =  -1.08395784150444E-02  3.75342263476187E-10
 cg2d: Sum(rhs),rhsMax =  -1.08169423656454E-02  3.76127719823077E-10
 cg2d: Sum(rhs),rhsMax =  -1.07959087425816E-02  3.76860525036825E-10
 cg2d: Sum(rhs),rhsMax =  -1.07764626121501E-02  3.77540566925909E-10
 cg2d: Sum(rhs),rhsMax =  -1.07585902061205E-02  3.78167742973191E-10
 cg2d: Sum(rhs),rhsMax =  -1.07422788400720E-02  3.78741960287602E-10
 cg2d: Sum(rhs),rhsMax =  -1.07275169495144E-02  3.79263135692472E-10
 cg2d: Sum(rhs),rhsMax =  -1.07142940357351E-02  3.79731195662614E-10
 cg2d: Sum(rhs),rhsMax =  -1.07026006732995E-02  3.80146076418273E-10
 cg2d: Sum(rhs),rhsMax =  -1.06924284830523E-02  3.80507723849722E-10
 cg2d: Sum(rhs),rhsMax =  -1.06837700977960E-02  3.80816093615101E-10
 cg2d: Sum(rhs),rhsMax =  -1.06766191877183E-02  3.81071151054030E-10
 cg2d: Sum(rhs),rhsMax =  -1.06709704214289E-02  3.81272871287988E-10
 cg2d: Sum(rhs),rhsMax =  -1.06668194717468E-02  3.81421239123908E-10
 cg2d: Sum(rhs),rhsMax =  -1.06641630069811E-02  3.81516249156225E-10
(PID.TID 0000.0001)      cg2d_init_res =   2.80315014082206E-01
(PID.TID 0000.0001)      cg2d_iters(min,last) =      -1     548
(PID.TID 0000.0001)      cg2d_last_res =   9.24373501217316E-08
(PID.TID 0000.0001) // =======================================================
(PID.TID 0000.0001) // Begin MONITOR dynamic field statistics
(PID.TID 0000.0001) // =======================================================
(PID.TID 0000.0001) %MON time_tsnumber                =                  3488
(PID.TID 0000.0001) %MON time_secondsf                =   1.8835200000000E+07
(PID.TID 0000.0001) %MON dynstat_eta_max              =   4.5493115771338E-09
(PID.TID 0000.0001) %MON dynstat_eta_min              =  -4.0692031498816E-09
(PID.TID 0000.0001) %MON dynstat_eta_mean             =   3.9209121611246E-13
(PID.TID 0000.0001) %MON dynstat_eta_sd               =   1.6761464616680E-09
(PID.TID 0000.0001) %MON dynstat_eta_del2             =   1.4072879136903E-14
(PID.TID 0000.0001) %MON dynstat_uvel_max             =   1.8813172756272E-09
(PID.TID 0000.0001) %MON dynstat_uvel_min             =  -1.5920113578795E-09
(PID.TID 0000.0001) %MON dynstat_uvel_mean            =   8.0502450994915E-15
(PID.TID 0000.0001) %MON dynstat_uvel_sd              =   6.4472528527261E-10
(PID.TID 0000.0001) %MON dynstat_uvel_del2            =   5.4772511254158E-14
(PID.TID 0000.0001) %MON dynstat_vvel_max             =   2.6478256374445E-09
(PID.TID 0000.0001) %MON dynstat_vvel_min             =  -2.8640255427439E-09
(PID.TID 0000.0001) %MON dynstat_vvel_mean            =   7.8648334415056E-15
(PID.TID 0000.0001) %MON dynstat_vvel_sd              =   1.2075583361493E-09
(PID.TID 0000.0001) %MON dynstat_vvel_del2            =   6.6355161096144E-14
(PID.TID 0000.0001) %MON dynstat_wvel_max             =   8.7219509886660E-15
(PID.TID 0000.0001) %MON dynstat_wvel_min             =  -5.4895882062311E-15
(PID.TID 0000.0001) %MON dynstat_wvel_mean            =   2.0627568015313E-28
(PID.TID 0000.0001) %MON dynstat_wvel_sd              =   4.1084656286868E-15
(PID.TID 0000.0001) %MON dynstat_wvel_del2            =   2.6817526899520E-20
(PID.TID 0000.0001) %MON dynstat_theta_max            =   2.0000000000000E+01
(PID.TID 0000.0001) %MON dynstat_theta_min            =   2.0000000000000E+01
(PID.TID 0000.0001) %MON dynstat_theta_mean           =   2.0000000000000E+01
(PID.TID 0000.0001) %MON dynstat_theta_sd             =   0.0000000000000E+00
(PID.TID 0000.0001) %MON dynstat_theta_del2           =   0.0000000000000E+00
(PID.TID 0000.0001) %MON dynstat_salt_max             =   3.0000000000000E+01
(PID.TID 0000.0001) %MON dynstat_salt_min             =   3.0000000000000E+01
(PID.TID 0000.0001) %MON dynstat_salt_mean            =   3.0000000000000E+01
(PID.TID 0000.0001) %MON dynstat_salt_sd              =   0.0000000000000E+00
(PID.TID 0000.0001) %MON dynstat_salt_del2            =   0.0000000000000E+00
(PID.TID 0000.0001) %MON trAdv_CFL_u_max              =   2.0478959553400E-09
(PID.TID 0000.0001) %MON trAdv_CFL_v_max              =   3.0833723085370E-09
(PID.TID 0000.0001) %MON trAdv_CFL_w_max              =   9.4751837408147E-15
(PID.TID 0000.0001) %MON advcfl_uvel_max              =   2.0318226576774E-09
(PID.TID 0000.0001) %MON advcfl_vvel_max              =   3.0931475861634E-09
(PID.TID 0000.0001) %MON advcfl_wvel_max              =   1.8839414135519E-14
(PID.TID 0000.0001) %MON advcfl_W_hf_max              =   0.0000000000000E+00
(PID.TID 0000.0001) %MON pe_b_mean                    =   2.7560872395186E-21
(PID.TID 0000.0001) %MON ke_max                       =   4.1253314628101E-18
(PID.TID 0000.0001) %MON ke_mean                      =   9.3312523995132E-19
(PID.TID 0000.0001) %MON ke_vol                       =   7.5645000000000E+15
(PID.TID 0000.0001) %MON vort_r_min                   =  -1.5137221132853E-13
(PID.TID 0000.0001) %MON vort_r_max                   =   1.0242098702880E-13
(PID.TID 0000.0001) %MON vort_a_mean                  =   8.2300000000000E-05
(PID.TID 0000.0001) %MON vort_a_sd                    =   7.1297555115664E-06
(PID.TID 0000.0001) %MON vort_p_mean                  =   8.3303658536585E-05
(PID.TID 0000.0001) %MON vort_p_sd                    =   1.7411470229540E-05
(PID.TID 0000.0001) %MON surfExpan_theta_mean         =   4.1169619575313E-27
(PID.TID 0000.0001) %MON surfExpan_salt_mean          =   6.2062135958124E-27
(PID.TID 0000.0001) // =======================================================
(PID.TID 0000.0001) // End MONITOR dynamic field statistics
(PID.TID 0000.0001) // =======================================================
 cg2d: Sum(rhs),rhsMax =  -1.06629986853150E-02  3.81557905639968E-10
 cg2d: Sum(rhs),rhsMax =  -1.06633251137402E-02  3.81546222575985E-10
 cg2d: Sum(rhs),rhsMax =  -1.06651419138977E-02  3.81481223872891E-10
 cg2d: Sum(rhs),rhsMax =  -1.06684496588743E-02  3.81362942929355E-10
 cg2d: Sum(rhs),rhsMax =  -1.06732499395624E-02  3.81191422930388E-10
 cg2d: Sum(rhs),rhsMax =  -1.06795452780177E-02  3.80966716762095E-10
 cg2d: Sum(rhs),rhsMax =  -1.06873392238498E-02  3.80688886992855E-10
 cg2d: Sum(rhs),rhsMax =  -1.06966362834030E-02  3.80358005861100E-10
 cg2d: Sum(rhs),rhsMax =  -1.07074419753572E-02  3.79974155256974E-10
 cg2d: Sum(rhs),rhsMax =  -1.07197628108358E-02  3.79537426703605E-10
 cg2d: Sum(rhs),rhsMax =  -1.07336063250937E-02  3.79047921335989E-10
 cg2d: Sum(rhs),rhsMax =  -1.07489810695160E-02  3.78505750056199E-10
 cg2d: Sum(rhs),rhsMax =  -1.07658966388538E-02  3.77911032767880E-10
 cg2d: Sum(rhs),rhsMax =  -1.07843636687411E-02  3.77263899543114E-10
 cg2d: Sum(rhs),rhsMax =  -1.08043938822526E-02  3.76564489645841E-10
 cg2d: Sum(rhs),rhsMax =  -1.08260000635496E-02  3.75812951939803E-10
(PID.TID 0000.0001)      cg2d_init_res =   2.83891493264700E-01
(PID.TID 0000.0001)      cg2d_iters(min,last) =      -1     549
(PID.TID 0000.0001)      cg2d_last_res =   9.64458383338170E-08
(PID.TID 0000.0001) // =======================================================
(PID.TID 0000.0001) // Begin MONITOR dynamic field statistics
(PID.TID 0000.0001) // =======================================================
(PID.TID 0000.0001) %MON time_tsnumber                =                  3504
(PID.TID 0000.0001) %MON time_secondsf                =   1.8921600000000E+07
(PID.TID 0000.0001) %MON dynstat_eta_max              =   4.5291133585757E-09
(PID.TID 0000.0001) %MON dynstat_eta_min              =  -3.9832586461961E-09
(PID.TID 0000.0001) %MON dynstat_eta_mean             =   3.9209117451193E-13
(PID.TID 0000.0001) %MON dynstat_eta_sd               =   1.6614866954939E-09
(PID.TID 0000.0001) %MON dynstat_eta_del2             =   1.4078534991573E-14
(PID.TID 0000.0001) %MON dynstat_uvel_max             =   1.8249401567331E-09
(PID.TID 0000.0001) %MON dynstat_uvel_min             =  -1.4440822785023E-09
(PID.TID 0000.0001) %MON dynstat_uvel_mean            =  -3.6664837585931E-14
(PID.TID 0000.0001) %MON dynstat_uvel_sd              =   6.3978383428636E-10
(PID.TID 0000.0001) %MON dynstat_uvel_del2            =   5.6044642209252E-14
(PID.TID 0000.0001) %MON dynstat_vvel_max             =   2.3962818430194E-09
(PID.TID 0000.0001) %MON dynstat_vvel_min             =  -2.9867447377656E-09
(PID.TID 0000.0001) %MON dynstat_vvel_mean            =   6.2412173759250E-15
(PID.TID 0000.0001) %MON dynstat_vvel_sd              =   1.1985014815019E-09
(PID.TID 0000.0001) %MON dynstat_vvel_del2            =   6.3944349539443E-14
(PID.TID 0000.0001) %MON dynstat_wvel_max             =   8.5228838281326E-15
(PID.TID 0000.0001) %MON dynstat_wvel_min             =  -6.1677974821928E-15
(PID.TID 0000.0001) %MON dynstat_wvel_mean            =  -8.0730235541870E-29
(PID.TID 0000.0001) %MON dynstat_wvel_sd              =   4.1018501751426E-15
(PID.TID 0000.0001) %MON dynstat_wvel_del2            =   2.6561453846755E-20
(PID.TID 0000.0001) %MON dynstat_theta_max            =   2.0000000000000E+01
(PID.TID 0000.0001) %MON dynstat_theta_min            =   2.0000000000000E+01
(PID.TID 0000.0001) %MON dynstat_theta_mean           =   2.0000000000000E+01
(PID.TID 0000.0001) %MON dynstat_theta_sd             =   0.0000000000000E+00
(PID.TID 0000.0001) %MON dynstat_theta_del2           =   0.0000000000000E+00
(PID.TID 0000.0001) %MON dynstat_salt_max             =   3.0000000000000E+01
(PID.TID 0000.0001) %MON dynstat_salt_min             =   3.0000000000000E+01
(PID.TID 0000.0001) %MON dynstat_salt_mean            =   3.0000000000000E+01
(PID.TID 0000.0001) %MON dynstat_salt_sd              =   0.0000000000000E+00
(PID.TID 0000.0001) %MON dynstat_salt_del2            =   0.0000000000000E+00
(PID.TID 0000.0001) %MON trAdv_CFL_u_max              =   1.9661866981907E-09
(PID.TID 0000.0001) %MON trAdv_CFL_v_max              =   3.2183883779205E-09
(PID.TID 0000.0001) %MON trAdv_CFL_w_max              =   9.1663898540539E-15
(PID.TID 0000.0001) %MON advcfl_uvel_max              =   1.9709353692717E-09
(PID.TID 0000.0001) %MON advcfl_vvel_max              =   3.2256843167868E-09
(PID.TID 0000.0001) %MON advcfl_wvel_max              =   1.8409429068766E-14
(PID.TID 0000.0001) %MON advcfl_W_hf_max              =   0.0000000000000E+00
(PID.TID 0000.0001) %MON pe_b_mean                    =   2.7080879673709E-21
(PID.TID 0000.0001) %MON ke_max                       =   4.4891464157450E-18
(PID.TID 0000.0001) %MON ke_mean                      =   9.1911309655307E-19
(PID.TID 0000.0001) %MON ke_vol                       =   7.5645000000000E+15
(PID.TID 0000.0001) %MON vort_r_min                   =  -1.5266495022677E-13
(PID.TID 0000.0001) %MON vort_r_max                   =   1.0402656627378E-13
(PID.TID 0000.0001) %MON vort_a_mean                  =   8.2300000000000E-05
(PID.TID 0000.0001) %MON vort_a_sd                    =   7.1297555115620E-06
(PID.TID 0000.0001) %MON vort_p_mean                  =   8.3303658536585E-05
(PID.TID 0000.0001) %MON vort_p_sd                    =   1.7411470229589E-05
(PID.TID 0000.0001) %MON surfExpan_theta_mean         =  -1.7153454347961E-27
(PID.TID 0000.0001) %MON surfExpan_salt_mean          =  -2.5089237390269E-27
(PID.TID 0000.0001) // =======================================================
(PID.TID 0000.0001) // End MONITOR dynamic field statistics
(PID.TID 0000.0001) // =======================================================
 cg2d: Sum(rhs),rhsMax =  -1.08491961277747E-02  3.75009444636145E-10
 cg2d: Sum(rhs),rhsMax =  -1.08739971150577E-02  3.74154135447165E-10
 cg2d: Sum(rhs),rhsMax =  -1.09004192137237E-02  3.73247201369814E-10
 cg2d: Sum(rhs),rhsMax =  -1.09284797793392E-02  3.72288828828374E-10
 cg2d: Sum(rhs),rhsMax =  -1.09581974101057E-02  3.71279213450222E-10
 cg2d: Sum(rhs),rhsMax =  -1.09895919061313E-02  3.70218560095553E-10
 cg2d: Sum(rhs),rhsMax =  -1.10226843508425E-02  3.69107083078758E-10
 cg2d: Sum(rhs),rhsMax =  -1.10574971285177E-02  3.67945005646017E-10
 cg2d: Sum(rhs),rhsMax =  -1.10940539818026E-02  3.66732560197340E-10
 cg2d: Sum(rhs),rhsMax =  -1.11323800252284E-02  3.65469988218018E-10
 cg2d: Sum(rhs),rhsMax =  -1.11725017968016E-02  3.64157540216232E-10
 cg2d: Sum(rhs),rhsMax =  -1.12144473202936E-02  3.62795475662853E-10
 cg2d: Sum(rhs),rhsMax =  -1.12582461216881E-02  3.61384062938551E-10
 cg2d: Sum(rhs),rhsMax =  -1.13039293143190E-02  3.59923579276848E-10
 cg2d: Sum(rhs),rhsMax =  -1.13515296491258E-02  3.58414310706152E-10
 cg2d: Sum(rhs),rhsMax =  -1.14010815428844E-02  3.56856551989757E-10
(PID.TID 0000.0001)      cg2d_init_res =   2.99663339681153E-01
(PID.TID 0000.0001)      cg2d_iters(min,last) =      -1     550
(PID.TID 0000.0001)      cg2d_last_res =   9.60503219626118E-08
(PID.TID 0000.0001) // =======================================================
(PID.TID 0000.0001) // Begin MONITOR dynamic field statistics
(PID.TID 0000.0001) // =======================================================
(PID.TID 0000.0001) %MON time_tsnumber                =                  3520
(PID.TID 0000.0001) %MON time_secondsf                =   1.9008000000000E+07
(PID.TID 0000.0001) %MON dynstat_eta_max              =   4.4225321970342E-09
(PID.TID 0000.0001) %MON dynstat_eta_min              =  -3.8115449642846E-09
(PID.TID 0000.0001) %MON dynstat_eta_mean             =   3.9209113666889E-13
(PID.TID 0000.0001) %MON dynstat_eta_sd               =   1.6449775407285E-09
(PID.TID 0000.0001) %MON dynstat_eta_del2             =   1.4033587577602E-14
(PID.TID 0000.0001) %MON dynstat_uvel_max             =   1.8782697138244E-09
(PID.TID 0000.0001) %MON dynstat_uvel_min             =  -1.4690118789195E-09
(PID.TID 0000.0001) %MON dynstat_uvel_mean            =  -7.9143029928991E-14
(PID.TID 0000.0001) %MON dynstat_uvel_sd              =   6.4723890631550E-10
(PID.TID 0000.0001) %MON dynstat_uvel_del2            =   5.6915033371521E-14
(PID.TID 0000.0001) %MON dynstat_vvel_max             =   2.6202236285176E-09
(PID.TID 0000.0001) %MON dynstat_vvel_min             =  -3.0712247418818E-09
(PID.TID 0000.0001) %MON dynstat_vvel_mean            =   5.0913207593969E-15
(PID.TID 0000.0001) %MON dynstat_vvel_sd              =   1.1828925599402E-09
(PID.TID 0000.0001) %MON dynstat_vvel_del2            =   6.1708638198760E-14
(PID.TID 0000.0001) %MON dynstat_wvel_max             =   9.0939175148574E-15
(PID.TID 0000.0001) %MON dynstat_wvel_min             =  -6.7961167554698E-15
(PID.TID 0000.0001) %MON dynstat_wvel_mean            =  -9.0849369821798E-29
(PID.TID 0000.0001) %MON dynstat_wvel_sd              =   4.0992701992247E-15
(PID.TID 0000.0001) %MON dynstat_wvel_del2            =   2.6430658889920E-20
(PID.TID 0000.0001) %MON dynstat_theta_max            =   2.0000000000000E+01
(PID.TID 0000.0001) %MON dynstat_theta_min            =   2.0000000000000E+01
(PID.TID 0000.0001) %MON dynstat_theta_mean           =   2.0000000000000E+01
(PID.TID 0000.0001) %MON dynstat_theta_sd             =   0.0000000000000E+00
(PID.TID 0000.0001) %MON dynstat_theta_del2           =   0.0000000000000E+00
(PID.TID 0000.0001) %MON dynstat_salt_max             =   3.0000000000000E+01
(PID.TID 0000.0001) %MON dynstat_salt_min             =   3.0000000000000E+01
(PID.TID 0000.0001) %MON dynstat_salt_mean            =   3.0000000000000E+01
(PID.TID 0000.0001) %MON dynstat_salt_sd              =   0.0000000000000E+00
(PID.TID 0000.0001) %MON dynstat_salt_del2            =   0.0000000000000E+00
(PID.TID 0000.0001) %MON trAdv_CFL_u_max              =   2.0260355314505E-09
(PID.TID 0000.0001) %MON trAdv_CFL_v_max              =   3.3126547431277E-09
(PID.TID 0000.0001) %MON trAdv_CFL_w_max              =   9.7840120190651E-15
(PID.TID 0000.0001) %MON advcfl_uvel_max              =   2.0285312909303E-09
(PID.TID 0000.0001) %MON advcfl_vvel_max              =   3.3169227212323E-09
(PID.TID 0000.0001) %MON advcfl_wvel_max              =   1.9642861832092E-14
(PID.TID 0000.0001) %MON advcfl_W_hf_max              =   0.0000000000000E+00
(PID.TID 0000.0001) %MON pe_b_mean                    =   2.6545381892353E-21
(PID.TID 0000.0001) %MON ke_max                       =   4.7456535100129E-18
(PID.TID 0000.0001) %MON ke_mean                      =   9.0538107528959E-19
(PID.TID 0000.0001) %MON ke_vol                       =   7.5645000000000E+15
(PID.TID 0000.0001) %MON vort_r_min                   =  -1.4853073539965E-13
(PID.TID 0000.0001) %MON vort_r_max                   =   1.0704161081270E-13
(PID.TID 0000.0001) %MON vort_a_mean                  =   8.2300000000000E-05
(PID.TID 0000.0001) %MON vort_a_sd                    =   7.1297555115540E-06
(PID.TID 0000.0001) %MON vort_p_mean                  =   8.3303658536586E-05
(PID.TID 0000.0001) %MON vort_p_sd                    =   1.7411470229635E-05
(PID.TID 0000.0001) %MON surfExpan_theta_mean         =  -1.7969505283372E-27
(PID.TID 0000.0001) %MON surfExpan_salt_mean          =  -2.7279063063547E-27
(PID.TID 0000.0001) // =======================================================
(PID.TID 0000.0001) // End MONITOR dynamic field statistics
(PID.TID 0000.0001) // =======================================================
 cg2d: Sum(rhs),rhsMax =  -1.14526211816503E-02  3.55250606564263E-10
 cg2d: Sum(rhs),rhsMax =  -1.15061865703945E-02  3.53596786476043E-10
 cg2d: Sum(rhs),rhsMax =  -1.15618175928238E-02  3.51895412316110E-10
 cg2d: Sum(rhs),rhsMax =  -1.16195561163841E-02  3.50146813153443E-10
 cg2d: Sum(rhs),rhsMax =  -1.16794460337899E-02  3.48351326466432E-10
 cg2d: Sum(rhs),rhsMax =  -1.17415333933285E-02  3.46509298189809E-10
 cg2d: Sum(rhs),rhsMax =  -1.18058664507291E-02  3.44621082154447E-10
 cg2d: Sum(rhs),rhsMax =  -1.18724957860404E-02  3.42687040807849E-10
 cg2d: Sum(rhs),rhsMax =  -1.19414744170339E-02  3.40707544494066E-10
 cg2d: Sum(rhs),rhsMax =  -1.20128578766630E-02  3.38682971695725E-10
 cg2d: Sum(rhs),rhsMax =  -1.20867043679845E-02  3.36613708682023E-10
 cg2d: Sum(rhs),rhsMax =  -1.21630748517445E-02  3.34500149956297E-10
 cg2d: Sum(rhs),rhsMax =  -1.22420332143891E-02  3.32342697519242E-10
 cg2d: Sum(rhs),rhsMax =  -1.23236463804502E-02  3.30141761176554E-10
 cg2d: Sum(rhs),rhsMax =  -1.23541919232859E-02  3.29325489238506E-10
 cg2d: Sum(rhs),rhsMax =  -1.23102303593968E-02  3.30501554879531E-10
(PID.TID 0000.0001)      cg2d_init_res =   3.25263096090675E-01
(PID.TID 0000.0001)      cg2d_iters(min,last) =      -1     552
(PID.TID 0000.0001)      cg2d_last_res =   9.38055510882829E-08
(PID.TID 0000.0001) // =======================================================
(PID.TID 0000.0001) // Begin MONITOR dynamic field statistics
(PID.TID 0000.0001) // =======================================================
(PID.TID 0000.0001) %MON time_tsnumber                =                  3536
(PID.TID 0000.0001) %MON time_secondsf                =   1.9094400000000E+07
(PID.TID 0000.0001) %MON dynstat_eta_max              =   4.2313799137648E-09
(PID.TID 0000.0001) %MON dynstat_eta_min              =  -3.5668225783277E-09
(PID.TID 0000.0001) %MON dynstat_eta_mean             =   3.9209110103681E-13
(PID.TID 0000.0001) %MON dynstat_eta_sd               =   1.6279859729797E-09
(PID.TID 0000.0001) %MON dynstat_eta_del2             =   1.3937771042999E-14
(PID.TID 0000.0001) %MON dynstat_uvel_max             =   1.8954394425593E-09
(PID.TID 0000.0001) %MON dynstat_uvel_min             =  -1.6145208005800E-09
(PID.TID 0000.0001) %MON dynstat_uvel_mean            =  -1.1717473303300E-13
(PID.TID 0000.0001) %MON dynstat_uvel_sd              =   6.6386788494843E-10
(PID.TID 0000.0001) %MON dynstat_uvel_del2            =   5.7162160537262E-14
(PID.TID 0000.0001) %MON dynstat_vvel_max             =   2.8355941782172E-09
(PID.TID 0000.0001) %MON dynstat_vvel_min             =  -3.1130083259082E-09
(PID.TID 0000.0001) %MON dynstat_vvel_mean            =   4.4020669960253E-15
(PID.TID 0000.0001) %MON dynstat_vvel_sd              =   1.1621496644547E-09
(PID.TID 0000.0001) %MON dynstat_vvel_del2            =   5.9973112801189E-14
(PID.TID 0000.0001) %MON dynstat_wvel_max             =   9.5862391455426E-15
(PID.TID 0000.0001) %MON dynstat_wvel_min             =  -7.3475093792519E-15
(PID.TID 0000.0001) %MON dynstat_wvel_mean            =  -6.5373836474618E-29
(PID.TID 0000.0001) %MON dynstat_wvel_sd              =   4.0970232211809E-15
(PID.TID 0000.0001) %MON dynstat_wvel_del2            =   2.6416670014954E-20
(PID.TID 0000.0001) %MON dynstat_theta_max            =   2.0000000000000E+01
(PID.TID 0000.0001) %MON dynstat_theta_min            =   2.0000000000000E+01
(PID.TID 0000.0001) %MON dynstat_theta_mean           =   2.0000000000000E+01
(PID.TID 0000.0001) %MON dynstat_theta_sd             =   0.0000000000000E+00
(PID.TID 0000.0001) %MON dynstat_theta_del2           =   0.0000000000000E+00
(PID.TID 0000.0001) %MON dynstat_salt_max             =   3.0000000000000E+01
(PID.TID 0000.0001) %MON dynstat_salt_min             =   3.0000000000000E+01
(PID.TID 0000.0001) %MON dynstat_salt_mean            =   3.0000000000000E+01
(PID.TID 0000.0001) %MON dynstat_salt_sd              =   0.0000000000000E+00
(PID.TID 0000.0001) %MON dynstat_salt_del2            =   0.0000000000000E+00
(PID.TID 0000.0001) %MON trAdv_CFL_u_max              =   2.0470653138124E-09
(PID.TID 0000.0001) %MON trAdv_CFL_v_max              =   3.3600450231014E-09
(PID.TID 0000.0001) %MON trAdv_CFL_w_max              =   1.0324600066192E-14
(PID.TID 0000.0001) %MON advcfl_uvel_max              =   2.0470745979640E-09
(PID.TID 0000.0001) %MON advcfl_vvel_max              =   3.3620489919809E-09
(PID.TID 0000.0001) %MON advcfl_wvel_max              =   2.0706276554372E-14
(PID.TID 0000.0001) %MON advcfl_W_hf_max              =   0.0000000000000E+00
(PID.TID 0000.0001) %MON pe_b_mean                    =   2.5999820507971E-21
(PID.TID 0000.0001) %MON ke_max                       =   4.8760913058014E-18
(PID.TID 0000.0001) %MON ke_mean                      =   8.9201533359101E-19
(PID.TID 0000.0001) %MON ke_vol                       =   7.5645000000000E+15
(PID.TID 0000.0001) %MON vort_r_min                   =  -1.3920070966499E-13
(PID.TID 0000.0001) %MON vort_r_max                   =   1.1719775601472E-13
(PID.TID 0000.0001) %MON vort_a_mean                  =   8.2300000000001E-05
(PID.TID 0000.0001) %MON vort_a_sd                    =   7.1297555115540E-06
(PID.TID 0000.0001) %MON vort_p_mean                  =   8.3303658536586E-05
(PID.TID 0000.0001) %MON vort_p_sd                    =   1.7411470229681E-05
(PID.TID 0000.0001) %MON surfExpan_theta_mean         =  -1.3195282934386E-27
(PID.TID 0000.0001) %MON surfExpan_salt_mean          =  -1.9749075092022E-27
(PID.TID 0000.0001) // =======================================================
(PID.TID 0000.0001) // End MONITOR dynamic field statistics
(PID.TID 0000.0001) // =======================================================
 cg2d: Sum(rhs),rhsMax =  -1.22685454806114E-02  3.31624499327420E-10
 cg2d: Sum(rhs),rhsMax =  -1.22285424576619E-02  3.32709335124567E-10
 cg2d: Sum(rhs),rhsMax =  -1.21889567283763E-02  3.33789863912839E-10
 cg2d: Sum(rhs),rhsMax =  -1.21515715062290E-02  3.34816791675180E-10
 cg2d: Sum(rhs),rhsMax =  -1.21158473230909E-02  3.35804013953271E-10
 cg2d: Sum(rhs),rhsMax =  -1.20804279710956E-02  3.36788576393767E-10
 cg2d: Sum(rhs),rhsMax =  -1.20471424398764E-02  3.37719101184423E-10
 cg2d: Sum(rhs),rhsMax =  -1.20155127858845E-02  3.38608111409521E-10
 cg2d: Sum(rhs),rhsMax =  -1.19840757090139E-02  3.39496358854249E-10
 cg2d: Sum(rhs),rhsMax =  -1.19547143748693E-02  3.40330175681866E-10
 cg2d: Sum(rhs),rhsMax =  -1.19270052848067E-02  3.41120836494725E-10
 cg2d: Sum(rhs),rhsMax =  -1.18993893758279E-02  3.41912502078093E-10
 cg2d: Sum(rhs),rhsMax =  -1.18737990164720E-02  3.42649388112291E-10
 cg2d: Sum(rhs),rhsMax =  -1.18498464858138E-02  3.43341995790105E-10
 cg2d: Sum(rhs),rhsMax =  -1.18259116187314E-02  3.44036895369699E-10
 cg2d: Sum(rhs),rhsMax =  -1.18039593739707E-02  3.44676710811918E-10
(PID.TID 0000.0001)      cg2d_init_res =   3.13737736850338E-01
(PID.TID 0000.0001)      cg2d_iters(min,last) =      -1     552
(PID.TID 0000.0001)      cg2d_last_res =   9.54197456043148E-08
(PID.TID 0000.0001) // =======================================================
(PID.TID 0000.0001) // Begin MONITOR dynamic field statistics
(PID.TID 0000.0001) // =======================================================
(PID.TID 0000.0001) %MON time_tsnumber                =                  3552
(PID.TID 0000.0001) %MON time_secondsf                =   1.9180800000000E+07
(PID.TID 0000.0001) %MON dynstat_eta_max              =   3.9585847601239E-09
(PID.TID 0000.0001) %MON dynstat_eta_min              =  -3.2682218540293E-09
(PID.TID 0000.0001) %MON dynstat_eta_mean             =   3.9209106361534E-13
(PID.TID 0000.0001) %MON dynstat_eta_sd               =   1.6120007788119E-09
(PID.TID 0000.0001) %MON dynstat_eta_del2             =   1.3797819543723E-14
(PID.TID 0000.0001) %MON dynstat_uvel_max             =   2.0727675361972E-09
(PID.TID 0000.0001) %MON dynstat_uvel_min             =  -1.7483181380576E-09
(PID.TID 0000.0001) %MON dynstat_uvel_mean            =  -1.4880546099573E-13
(PID.TID 0000.0001) %MON dynstat_uvel_sd              =   6.8464826181983E-10
(PID.TID 0000.0001) %MON dynstat_uvel_del2            =   5.6671838849226E-14
(PID.TID 0000.0001) %MON dynstat_vvel_max             =   3.0128917700031E-09
(PID.TID 0000.0001) %MON dynstat_vvel_min             =  -3.1133868360774E-09
(PID.TID 0000.0001) %MON dynstat_vvel_mean            =   4.1275324614198E-15
(PID.TID 0000.0001) %MON dynstat_vvel_sd              =   1.1386692704422E-09
(PID.TID 0000.0001) %MON dynstat_vvel_del2            =   5.8951245747169E-14
(PID.TID 0000.0001) %MON dynstat_wvel_max             =   9.9390947810862E-15
(PID.TID 0000.0001) %MON dynstat_wvel_min             =  -7.7961189248743E-15
(PID.TID 0000.0001) %MON dynstat_wvel_mean            =   2.5610446967902E-28
(PID.TID 0000.0001) %MON dynstat_wvel_sd              =   4.0910720350293E-15
(PID.TID 0000.0001) %MON dynstat_wvel_del2            =   2.6494096411306E-20
(PID.TID 0000.0001) %MON dynstat_theta_max            =   2.0000000000000E+01
(PID.TID 0000.0001) %MON dynstat_theta_min            =   2.0000000000000E+01
(PID.TID 0000.0001) %MON dynstat_theta_mean           =   2.0000000000000E+01
(PID.TID 0000.0001) %MON dynstat_theta_sd             =   0.0000000000000E+00
(PID.TID 0000.0001) %MON dynstat_theta_del2           =   0.0000000000000E+00
(PID.TID 0000.0001) %MON dynstat_salt_max             =   3.0000000000000E+01
(PID.TID 0000.0001) %MON dynstat_salt_min             =   3.0000000000000E+01
(PID.TID 0000.0001) %MON dynstat_salt_mean            =   3.0000000000000E+01
(PID.TID 0000.0001) %MON dynstat_salt_sd              =   0.0000000000000E+00
(PID.TID 0000.0001) %MON dynstat_salt_del2            =   0.0000000000000E+00
(PID.TID 0000.0001) %MON trAdv_CFL_u_max              =   2.2253390682582E-09
(PID.TID 0000.0001) %MON trAdv_CFL_v_max              =   3.3638474940357E-09
(PID.TID 0000.0001) %MON trAdv_CFL_w_max              =   1.0714895261255E-14
(PID.TID 0000.0001) %MON advcfl_uvel_max              =   2.2385889390930E-09
(PID.TID 0000.0001) %MON advcfl_vvel_max              =   3.3624577829635E-09
(PID.TID 0000.0001) %MON advcfl_wvel_max              =   2.1468444727146E-14
(PID.TID 0000.0001) %MON advcfl_W_hf_max              =   0.0000000000000E+00
(PID.TID 0000.0001) %MON pe_b_mean                    =   2.5491742779977E-21
(PID.TID 0000.0001) %MON ke_max                       =   4.8738031456169E-18
(PID.TID 0000.0001) %MON ke_mean                      =   8.7906745558030E-19
(PID.TID 0000.0001) %MON ke_vol                       =   7.5645000000000E+15
(PID.TID 0000.0001) %MON vort_r_min                   =  -1.2515343169946E-13
(PID.TID 0000.0001) %MON vort_r_max                   =   1.2445769317643E-13
(PID.TID 0000.0001) %MON vort_a_mean                  =   8.2300000000000E-05
(PID.TID 0000.0001) %MON vort_a_sd                    =   7.1297555115594E-06
(PID.TID 0000.0001) %MON vort_p_mean                  =   8.3303658536586E-05
(PID.TID 0000.0001) %MON vort_p_sd                    =   1.7411470229723E-05
(PID.TID 0000.0001) %MON surfExpan_theta_mean         =   5.0952067692579E-27
(PID.TID 0000.0001) %MON surfExpan_salt_mean          =   7.6329508477054E-27
(PID.TID 0000.0001) // =======================================================
(PID.TID 0000.0001) // End MONITOR dynamic field statistics
(PID.TID 0000.0001) // =======================================================
 cg2d: Sum(rhs),rhsMax =  -1.17836090271786E-02  3.45271966750731E-10
 cg2d: Sum(rhs),rhsMax =  -1.17632342774418E-02  3.45869999844274E-10
 cg2d: Sum(rhs),rhsMax =  -1.17448059548184E-02  3.46412688794794E-10
 cg2d: Sum(rhs),rhsMax =  -1.17279126795779E-02  3.46911670666654E-10
 cg2d: Sum(rhs),rhsMax =  -1.17109948279631E-02  3.47412821368628E-10
 cg2d: Sum(rhs),rhsMax =  -1.16959934726928E-02  3.47858412673113E-10
 cg2d: Sum(rhs),rhsMax =  -1.16824210727777E-02  3.48262545200139E-10
 cg2d: Sum(rhs),rhsMax =  -1.16688732571683E-02  3.48666883063297E-10
 cg2d: Sum(rhs),rhsMax =  -1.16572179212653E-02  3.49015491125883E-10
 cg2d: Sum(rhs),rhsMax =  -1.16468387130310E-02  3.49326517398163E-10
 cg2d: Sum(rhs),rhsMax =  -1.16365893203792E-02  3.49634198271316E-10
 cg2d: Sum(rhs),rhsMax =  -1.16282139559675E-02  3.49886023822405E-10
 cg2d: Sum(rhs),rhsMax =  -1.16209084560214E-02  3.50105977403900E-10
 cg2d: Sum(rhs),rhsMax =  -1.16139001129345E-02  3.50317244203427E-10
 cg2d: Sum(rhs),rhsMax =  -1.16087526830871E-02  3.50472575003121E-10
 cg2d: Sum(rhs),rhsMax =  -1.16044091887828E-02  3.50603752895396E-10
(PID.TID 0000.0001)      cg2d_init_res =   3.09764033264602E-01
(PID.TID 0000.0001)      cg2d_iters(min,last) =      -1     552
(PID.TID 0000.0001)      cg2d_last_res =   9.47995867291585E-08
(PID.TID 0000.0001) // =======================================================
(PID.TID 0000.0001) // Begin MONITOR dynamic field statistics
(PID.TID 0000.0001) // =======================================================
(PID.TID 0000.0001) %MON time_tsnumber                =                  3568
(PID.TID 0000.0001) %MON time_secondsf                =   1.9267200000000E+07
(PID.TID 0000.0001) %MON dynstat_eta_max              =   3.6099859775389E-09
(PID.TID 0000.0001) %MON dynstat_eta_min              =  -2.9439014362081E-09
(PID.TID 0000.0001) %MON dynstat_eta_mean             =   3.9209101688059E-13
(PID.TID 0000.0001) %MON dynstat_eta_sd               =   1.5983246707671E-09
(PID.TID 0000.0001) %MON dynstat_eta_del2             =   1.3625909533519E-14
(PID.TID 0000.0001) %MON dynstat_uvel_max             =   2.2424257215007E-09
(PID.TID 0000.0001) %MON dynstat_uvel_min             =  -1.8645473520938E-09
(PID.TID 0000.0001) %MON dynstat_uvel_mean            =  -1.7243859135694E-13
(PID.TID 0000.0001) %MON dynstat_uvel_sd              =   7.0426010990853E-10
(PID.TID 0000.0001) %MON dynstat_uvel_del2            =   5.5445855047006E-14
(PID.TID 0000.0001) %MON dynstat_vvel_max             =   3.1448849034714E-09
(PID.TID 0000.0001) %MON dynstat_vvel_min             =  -3.0692906793014E-09
(PID.TID 0000.0001) %MON dynstat_vvel_mean            =   4.1929656441152E-15
(PID.TID 0000.0001) %MON dynstat_vvel_sd              =   1.1154328343784E-09
(PID.TID 0000.0001) %MON dynstat_vvel_del2            =   5.8683789204765E-14
(PID.TID 0000.0001) %MON dynstat_wvel_max             =   1.0118809388171E-14
(PID.TID 0000.0001) %MON dynstat_wvel_min             =  -8.1197467161065E-15
(PID.TID 0000.0001) %MON dynstat_wvel_mean            =  -3.2051973068538E-30
(PID.TID 0000.0001) %MON dynstat_wvel_sd              =   4.0779108429431E-15
(PID.TID 0000.0001) %MON dynstat_wvel_del2            =   2.6604258019649E-20
(PID.TID 0000.0001) %MON dynstat_theta_max            =   2.0000000000000E+01
(PID.TID 0000.0001) %MON dynstat_theta_min            =   2.0000000000000E+01
(PID.TID 0000.0001) %MON dynstat_theta_mean           =   2.0000000000000E+01
(PID.TID 0000.0001) %MON dynstat_theta_sd             =   0.0000000000000E+00
(PID.TID 0000.0001) %MON dynstat_theta_del2           =   0.0000000000000E+00
(PID.TID 0000.0001) %MON dynstat_salt_max             =   3.0000000000000E+01
(PID.TID 0000.0001) %MON dynstat_salt_min             =   3.0000000000000E+01
(PID.TID 0000.0001) %MON dynstat_salt_mean            =   3.0000000000000E+01
(PID.TID 0000.0001) %MON dynstat_salt_sd              =   0.0000000000000E+00
(PID.TID 0000.0001) %MON dynstat_salt_del2            =   0.0000000000000E+00
(PID.TID 0000.0001) %MON trAdv_CFL_u_max              =   2.4119934149437E-09
(PID.TID 0000.0001) %MON trAdv_CFL_v_max              =   3.3888386902857E-09
(PID.TID 0000.0001) %MON trAdv_CFL_w_max              =   1.0922908520072E-14
(PID.TID 0000.0001) %MON advcfl_uvel_max              =   2.4218197792208E-09
(PID.TID 0000.0001) %MON advcfl_vvel_max              =   3.3964756957491E-09
(PID.TID 0000.0001) %MON advcfl_wvel_max              =   2.1856628278449E-14
(PID.TID 0000.0001) %MON advcfl_W_hf_max              =   0.0000000000000E+00
(PID.TID 0000.0001) %MON pe_b_mean                    =   2.5061037106866E-21
(PID.TID 0000.0001) %MON ke_max                       =   4.9475781196015E-18
(PID.TID 0000.0001) %MON ke_mean                      =   8.6654943362151E-19
(PID.TID 0000.0001) %MON ke_vol                       =   7.5645000000000E+15
(PID.TID 0000.0001) %MON vort_r_min                   =  -1.0714018482070E-13
(PID.TID 0000.0001) %MON vort_r_max                   =   1.2866120375362E-13
(PID.TID 0000.0001) %MON vort_a_mean                  =   8.2299999999999E-05
(PID.TID 0000.0001) %MON vort_a_sd                    =   7.1297555115714E-06
(PID.TID 0000.0001) %MON vort_p_mean                  =   8.3303658536584E-05
(PID.TID 0000.0001) %MON vort_p_sd                    =   1.7411470229760E-05
(PID.TID 0000.0001) %MON surfExpan_theta_mean         =  -9.0824953952926E-29
(PID.TID 0000.0001) %MON surfExpan_salt_mean          =  -1.0755622012765E-28
(PID.TID 0000.0001) // =======================================================
(PID.TID 0000.0001) // End MONITOR dynamic field statistics
(PID.TID 0000.0001) // =======================================================
 cg2d: Sum(rhs),rhsMax =  -1.16005979666436E-02  3.50718936302484E-10
 cg2d: Sum(rhs),rhsMax =  -1.15986396773607E-02  3.50778147770074E-10
 cg2d: Sum(rhs),rhsMax =  -1.15971539131905E-02  3.50823084814504E-10
 cg2d: Sum(rhs),rhsMax =  -1.15965086021787E-02  3.50842603885449E-10
 cg2d: Sum(rhs),rhsMax =  -1.15977132338174E-02  3.50806159642716E-10
 cg2d: Sum(rhs),rhsMax =  -1.15989879148509E-02  3.50767604449488E-10
 cg2d: Sum(rhs),rhsMax =  -1.16014894765623E-02  3.50691967122400E-10
 cg2d: Sum(rhs),rhsMax =  -1.16058428300751E-02  3.50560419434325E-10
 cg2d: Sum(rhs),rhsMax =  -1.16097872795830E-02  3.50441312365753E-10
 cg2d: Sum(rhs),rhsMax =  -1.16154283453056E-02  3.50271115854867E-10
 cg2d: Sum(rhs),rhsMax =  -1.16225361398893E-02  3.50056902413356E-10
 cg2d: Sum(rhs),rhsMax =  -1.16294574877477E-02  3.49848559136353E-10
 cg2d: Sum(rhs),rhsMax =  -1.16382419863315E-02  3.49584490238637E-10
 cg2d: Sum(rhs),rhsMax =  -1.16478663848126E-02  3.49295630925178E-10
 cg2d: Sum(rhs),rhsMax =  -1.16579324120025E-02  3.48994027227165E-10
 cg2d: Sum(rhs),rhsMax =  -1.16698753366423E-02  3.48636862289043E-10
(PID.TID 0000.0001)      cg2d_init_res =   3.11763412796865E-01
(PID.TID 0000.0001)      cg2d_iters(min,last) =      -1     551
(PID.TID 0000.0001)      cg2d_last_res =   9.79768758296292E-08
(PID.TID 0000.0001) // =======================================================
(PID.TID 0000.0001) // Begin MONITOR dynamic field statistics
(PID.TID 0000.0001) // =======================================================
(PID.TID 0000.0001) %MON time_tsnumber                =                  3584
(PID.TID 0000.0001) %MON time_secondsf                =   1.9353600000000E+07
(PID.TID 0000.0001) %MON dynstat_eta_max              =   3.2611095623867E-09
(PID.TID 0000.0001) %MON dynstat_eta_min              =  -2.6177050213607E-09
(PID.TID 0000.0001) %MON dynstat_eta_mean             =   3.9209094725436E-13
(PID.TID 0000.0001) %MON dynstat_eta_sd               =   1.5877839793113E-09
(PID.TID 0000.0001) %MON dynstat_eta_del2             =   1.3437338609579E-14
(PID.TID 0000.0001) %MON dynstat_uvel_max             =   2.3554159310441E-09
(PID.TID 0000.0001) %MON dynstat_uvel_min             =  -1.9574347418263E-09
(PID.TID 0000.0001) %MON dynstat_uvel_mean            =  -1.8691785261867E-13
(PID.TID 0000.0001) %MON dynstat_uvel_sd              =   7.1820971566554E-10
(PID.TID 0000.0001) %MON dynstat_uvel_del2            =   5.3601125271018E-14
(PID.TID 0000.0001) %MON dynstat_vvel_max             =   3.2249183051934E-09
(PID.TID 0000.0001) %MON dynstat_vvel_min             =  -2.9857407622357E-09
(PID.TID 0000.0001) %MON dynstat_vvel_mean            =   4.5004195892370E-15
(PID.TID 0000.0001) %MON dynstat_vvel_sd              =   1.0954551073123E-09
(PID.TID 0000.0001) %MON dynstat_vvel_del2            =   5.9027634168690E-14
(PID.TID 0000.0001) %MON dynstat_wvel_max             =   1.0112380204874E-14
(PID.TID 0000.0001) %MON dynstat_wvel_min             =  -8.3014698359918E-15
(PID.TID 0000.0001) %MON dynstat_wvel_mean            =   1.1751821532313E-28
(PID.TID 0000.0001) %MON dynstat_wvel_sd              =   4.0552996499370E-15
(PID.TID 0000.0001) %MON dynstat_wvel_del2            =   2.6696186224874E-20
(PID.TID 0000.0001) %MON dynstat_theta_max            =   2.0000000000000E+01
(PID.TID 0000.0001) %MON dynstat_theta_min            =   2.0000000000000E+01
(PID.TID 0000.0001) %MON dynstat_theta_mean           =   2.0000000000000E+01
(PID.TID 0000.0001) %MON dynstat_theta_sd             =   0.0000000000000E+00
(PID.TID 0000.0001) %MON dynstat_theta_del2           =   0.0000000000000E+00
(PID.TID 0000.0001) %MON dynstat_salt_max             =   3.0000000000000E+01
(PID.TID 0000.0001) %MON dynstat_salt_min             =   3.0000000000000E+01
(PID.TID 0000.0001) %MON dynstat_salt_mean            =   3.0000000000000E+01
(PID.TID 0000.0001) %MON dynstat_salt_sd              =   0.0000000000000E+00
(PID.TID 0000.0001) %MON dynstat_salt_del2            =   0.0000000000000E+00
(PID.TID 0000.0001) %MON trAdv_CFL_u_max              =   2.5380913541668E-09
(PID.TID 0000.0001) %MON trAdv_CFL_v_max              =   3.4795155383446E-09
(PID.TID 0000.0001) %MON trAdv_CFL_w_max              =   1.0928063597837E-14
(PID.TID 0000.0001) %MON advcfl_uvel_max              =   2.5438492055277E-09
(PID.TID 0000.0001) %MON advcfl_vvel_max              =   3.4829117696089E-09
(PID.TID 0000.0001) %MON advcfl_wvel_max              =   2.1842741242528E-14
(PID.TID 0000.0001) %MON advcfl_W_hf_max              =   0.0000000000000E+00
(PID.TID 0000.0001) %MON pe_b_mean                    =   2.4731580144377E-21
(PID.TID 0000.0001) %MON ke_max                       =   5.2019161924262E-18
(PID.TID 0000.0001) %MON ke_mean                      =   8.5443606723374E-19
(PID.TID 0000.0001) %MON ke_vol                       =   7.5645000000000E+15
(PID.TID 0000.0001) %MON vort_r_min                   =  -8.9992535144954E-14
(PID.TID 0000.0001) %MON vort_r_max                   =   1.2983906082937E-13
(PID.TID 0000.0001) %MON vort_a_mean                  =   8.2300000000000E-05
(PID.TID 0000.0001) %MON vort_a_sd                    =   7.1297555115605E-06
(PID.TID 0000.0001) %MON vort_p_mean                  =   8.3303658536585E-05
(PID.TID 0000.0001) %MON vort_p_sd                    =   1.7411470229779E-05
(PID.TID 0000.0001) %MON surfExpan_theta_mean         =   2.3572004810074E-27
(PID.TID 0000.0001) %MON surfExpan_salt_mean          =   3.5566515384995E-27
(PID.TID 0000.0001) // =======================================================
(PID.TID 0000.0001) // End MONITOR dynamic field statistics
(PID.TID 0000.0001) // =======================================================
 cg2d: Sum(rhs),rhsMax =  -1.16819413685323E-02  3.48276757007237E-10
 cg2d: Sum(rhs),rhsMax =  -1.16951731309882E-02  3.47882715983137E-10
 cg2d: Sum(rhs),rhsMax =  -1.17102149135414E-02  3.47435854468667E-10
 cg2d: Sum(rhs),rhsMax =  -1.17247379002545E-02  3.47005492807840E-10
 cg2d: Sum(rhs),rhsMax =  -1.17411671095423E-02  3.46519927650809E-10
 cg2d: Sum(rhs),rhsMax =  -1.17585213338041E-02  3.46008497634744E-10
 cg2d: Sum(rhs),rhsMax =  -1.17762584189535E-02  3.45487341869465E-10
 cg2d: Sum(rhs),rhsMax =  -1.17959273958530E-02  3.44911255654917E-10
 cg2d: Sum(rhs),rhsMax =  -1.18155311385168E-02  3.44338988056030E-10
 cg2d: Sum(rhs),rhsMax =  -1.18365302796747E-02  3.43728089161262E-10
 cg2d: Sum(rhs),rhsMax =  -1.18589451786463E-02  3.43078390665465E-10
 cg2d: Sum(rhs),rhsMax =  -1.18812854246362E-02  3.42433294236745E-10
 cg2d: Sum(rhs),rhsMax =  -1.19056050740068E-02  3.41733792650782E-10
 cg2d: Sum(rhs),rhsMax =  -1.19301570129052E-02  3.41030498740334E-10
 cg2d: Sum(rhs),rhsMax =  -1.19558485784551E-02  3.40297651477200E-10
 cg2d: Sum(rhs),rhsMax =  -1.19831115039731E-02  3.39523416081500E-10
(PID.TID 0000.0001)      cg2d_init_res =   3.18880113875126E-01
(PID.TID 0000.0001)      cg2d_iters(min,last) =      -1     550
(PID.TID 0000.0001)      cg2d_last_res =   9.94057811332332E-08
(PID.TID 0000.0001) // =======================================================
(PID.TID 0000.0001) // Begin MONITOR dynamic field statistics
(PID.TID 0000.0001) // =======================================================
(PID.TID 0000.0001) %MON time_tsnumber                =                  3600
(PID.TID 0000.0001) %MON time_secondsf                =   1.9440000000000E+07
(PID.TID 0000.0001) %MON dynstat_eta_max              =   3.6634748398710E-09
(PID.TID 0000.0001) %MON dynstat_eta_min              =  -2.2921917400492E-09
(PID.TID 0000.0001) %MON dynstat_eta_mean             =   3.9209075511468E-13
(PID.TID 0000.0001) %MON dynstat_eta_sd               =   1.5805293652875E-09
(PID.TID 0000.0001) %MON dynstat_eta_del2             =   1.3247721012237E-14
(PID.TID 0000.0001) %MON dynstat_uvel_max             =   2.4190397685350E-09
(PID.TID 0000.0001) %MON dynstat_uvel_min             =  -2.0237965905458E-09
(PID.TID 0000.0001) %MON dynstat_uvel_mean            =  -1.9158522308291E-13
(PID.TID 0000.0001) %MON dynstat_uvel_sd              =   7.2342511373151E-10
(PID.TID 0000.0001) %MON dynstat_uvel_del2            =   5.1360339000163E-14
(PID.TID 0000.0001) %MON dynstat_vvel_max             =   3.2511036379671E-09
(PID.TID 0000.0001) %MON dynstat_vvel_min             =  -2.8609377065458E-09
(PID.TID 0000.0001) %MON dynstat_vvel_mean            =   4.9356284568667E-15
(PID.TID 0000.0001) %MON dynstat_vvel_sd              =   1.0811488853782E-09
(PID.TID 0000.0001) %MON dynstat_vvel_del2            =   5.9703796554798E-14
(PID.TID 0000.0001) %MON dynstat_wvel_max             =   9.9159249139502E-15
(PID.TID 0000.0001) %MON dynstat_wvel_min             =  -8.3333439032662E-15
(PID.TID 0000.0001) %MON dynstat_wvel_mean            =  -3.7964996922842E-29
(PID.TID 0000.0001) %MON dynstat_wvel_sd              =   4.0227376182187E-15
(PID.TID 0000.0001) %MON dynstat_wvel_del2            =   2.6703021664203E-20
(PID.TID 0000.0001) %MON dynstat_theta_max            =   2.0000000000000E+01
(PID.TID 0000.0001) %MON dynstat_theta_min            =   2.0000000000000E+01
(PID.TID 0000.0001) %MON dynstat_theta_mean           =   2.0000000000000E+01
(PID.TID 0000.0001) %MON dynstat_theta_sd             =   0.0000000000000E+00
(PID.TID 0000.0001) %MON dynstat_theta_del2           =   0.0000000000000E+00
(PID.TID 0000.0001) %MON dynstat_salt_max             =   3.0000000000000E+01
(PID.TID 0000.0001) %MON dynstat_salt_min             =   3.0000000000000E+01
(PID.TID 0000.0001) %MON dynstat_salt_mean            =   3.0000000000000E+01
(PID.TID 0000.0001) %MON dynstat_salt_sd              =   0.0000000000000E+00
(PID.TID 0000.0001) %MON dynstat_salt_del2            =   0.0000000000000E+00
(PID.TID 0000.0001) %MON trAdv_CFL_u_max              =   2.6101074506466E-09
(PID.TID 0000.0001) %MON trAdv_CFL_v_max              =   3.5106457663562E-09
(PID.TID 0000.0001) %MON trAdv_CFL_w_max              =   1.0729225581385E-14
(PID.TID 0000.0001) %MON advcfl_uvel_max              =   2.6125629500178E-09
(PID.TID 0000.0001) %MON advcfl_vvel_max              =   3.5111919290044E-09
(PID.TID 0000.0001) %MON advcfl_wvel_max              =   2.1418397814132E-14
(PID.TID 0000.0001) %MON advcfl_W_hf_max              =   0.0000000000000E+00
(PID.TID 0000.0001) %MON pe_b_mean                    =   2.4506098369342E-21
(PID.TID 0000.0001) %MON ke_max                       =   5.2857637743491E-18
(PID.TID 0000.0001) %MON ke_mean                      =   8.4267393667481E-19
(PID.TID 0000.0001) %MON ke_vol                       =   7.5645000000000E+15
(PID.TID 0000.0001) %MON vort_r_min                   =  -1.0422355002711E-13
(PID.TID 0000.0001) %MON vort_r_max                   =   1.2815763307402E-13
(PID.TID 0000.0001) %MON vort_a_mean                  =   8.2300000000001E-05
(PID.TID 0000.0001) %MON vort_a_sd                    =   7.1297555115540E-06
(PID.TID 0000.0001) %MON vort_p_mean                  =   8.3303658536587E-05
(PID.TID 0000.0001) %MON vort_p_sd                    =   1.7411470229789E-05
(PID.TID 0000.0001) %MON surfExpan_theta_mean         =  -7.6572725055773E-28
(PID.TID 0000.0001) %MON surfExpan_salt_mean          =  -1.1495076668620E-27
(PID.TID 0000.0001) // =======================================================
(PID.TID 0000.0001) // End MONITOR dynamic field statistics
(PID.TID 0000.0001) // =======================================================
 cg2d: Sum(rhs),rhsMax =  -1.20101906083175E-02  3.38757876239012E-10
 cg2d: Sum(rhs),rhsMax =  -1.20393077849491E-02  3.37938555774533E-10
 cg2d: Sum(rhs),rhsMax =  -1.20686007212217E-02  3.37118273763897E-10
 cg2d: Sum(rhs),rhsMax =  -1.20991437767731E-02  3.36267187819365E-10
 cg2d: Sum(rhs),rhsMax =  -1.21310402800885E-02  3.35382727671241E-10
 cg2d: Sum(rhs),rhsMax =  -1.21630369128827E-02  3.34500569054690E-10
 cg2d: Sum(rhs),rhsMax =  -1.21971402282767E-02  3.33565350548535E-10
 cg2d: Sum(rhs),rhsMax =  -1.22309736822120E-02  3.32642669319106E-10
 cg2d: Sum(rhs),rhsMax =  -1.22665706019805E-02  3.31677381059183E-10
 cg2d: Sum(rhs),rhsMax =  -1.23029169685202E-02  3.30697528245421E-10
 cg2d: Sum(rhs),rhsMax =  -1.23400320769387E-02  3.29702904546311E-10
 cg2d: Sum(rhs),rhsMax =  -1.23788415301380E-02  3.28669251129942E-10
 cg2d: Sum(rhs),rhsMax =  -1.24175000095051E-02  3.27646040773089E-10
 cg2d: Sum(rhs),rhsMax =  -1.24583808314314E-02  3.26570914014701E-10
 cg2d: Sum(rhs),rhsMax =  -1.24989486304955E-02  3.25510971041399E-10
 cg2d: Sum(rhs),rhsMax =  -1.25414305943908E-02  3.24408364450077E-10
(PID.TID 0000.0001)      cg2d_init_res =   3.30711826093245E-01
(PID.TID 0000.0001)      cg2d_iters(min,last) =      -1     552
(PID.TID 0000.0001)      cg2d_last_res =   9.46057154221153E-08
(PID.TID 0000.0001) // =======================================================
(PID.TID 0000.0001) // Begin MONITOR dynamic field statistics
(PID.TID 0000.0001) // =======================================================
(PID.TID 0000.0001) %MON time_tsnumber                =                  3616
(PID.TID 0000.0001) %MON time_secondsf                =   1.9526400000000E+07
(PID.TID 0000.0001) %MON dynstat_eta_max              =   3.9961567054008E-09
(PID.TID 0000.0001) %MON dynstat_eta_min              =  -2.1926318290262E-09
(PID.TID 0000.0001) %MON dynstat_eta_mean             =   3.9209060109895E-13
(PID.TID 0000.0001) %MON dynstat_eta_sd               =   1.5759846314051E-09
(PID.TID 0000.0001) %MON dynstat_eta_del2             =   1.3070120411699E-14
(PID.TID 0000.0001) %MON dynstat_uvel_max             =   2.4260484156272E-09
(PID.TID 0000.0001) %MON dynstat_uvel_min             =  -2.0603010959160E-09
(PID.TID 0000.0001) %MON dynstat_uvel_mean            =  -1.8631135315015E-13
(PID.TID 0000.0001) %MON dynstat_uvel_sd              =   7.1848154367546E-10
(PID.TID 0000.0001) %MON dynstat_uvel_del2            =   4.9030101973058E-14
(PID.TID 0000.0001) %MON dynstat_vvel_max             =   3.2219862093287E-09
(PID.TID 0000.0001) %MON dynstat_vvel_min             =  -2.6989908139461E-09
(PID.TID 0000.0001) %MON dynstat_vvel_mean            =   5.3757292039981E-15
(PID.TID 0000.0001) %MON dynstat_vvel_sd              =   1.0737594398191E-09
(PID.TID 0000.0001) %MON dynstat_vvel_del2            =   6.0378661814402E-14
(PID.TID 0000.0001) %MON dynstat_wvel_max             =   9.5389774157351E-15
(PID.TID 0000.0001) %MON dynstat_wvel_min             =  -8.2138695339795E-15
(PID.TID 0000.0001) %MON dynstat_wvel_mean            =  -3.8852327519949E-28
(PID.TID 0000.0001) %MON dynstat_wvel_sd              =   3.9816039807769E-15
(PID.TID 0000.0001) %MON dynstat_wvel_del2            =   2.6613119879275E-20
(PID.TID 0000.0001) %MON dynstat_theta_max            =   2.0000000000000E+01
(PID.TID 0000.0001) %MON dynstat_theta_min            =   2.0000000000000E+01
(PID.TID 0000.0001) %MON dynstat_theta_mean           =   2.0000000000000E+01
(PID.TID 0000.0001) %MON dynstat_theta_sd             =   0.0000000000000E+00
(PID.TID 0000.0001) %MON dynstat_theta_del2           =   0.0000000000000E+00
(PID.TID 0000.0001) %MON dynstat_salt_max             =   3.0000000000000E+01
(PID.TID 0000.0001) %MON dynstat_salt_min             =   3.0000000000000E+01
(PID.TID 0000.0001) %MON dynstat_salt_mean            =   3.0000000000000E+01
(PID.TID 0000.0001) %MON dynstat_salt_sd              =   0.0000000000000E+00
(PID.TID 0000.0001) %MON dynstat_salt_del2            =   0.0000000000000E+00
(PID.TID 0000.0001) %MON trAdv_CFL_u_max              =   2.6215345107070E-09
(PID.TID 0000.0001) %MON trAdv_CFL_v_max              =   3.4835793713408E-09
(PID.TID 0000.0001) %MON trAdv_CFL_w_max              =   1.0333701766885E-14
(PID.TID 0000.0001) %MON advcfl_uvel_max              =   2.6201322888774E-09
(PID.TID 0000.0001) %MON advcfl_vvel_max              =   3.4797451060750E-09
(PID.TID 0000.0001) %MON advcfl_wvel_max              =   2.0604191217988E-14
(PID.TID 0000.0001) %MON advcfl_W_hf_max              =   0.0000000000000E+00
(PID.TID 0000.0001) %MON pe_b_mean                    =   2.4365368856289E-21
(PID.TID 0000.0001) %MON ke_max                       =   5.1910786034033E-18
(PID.TID 0000.0001) %MON ke_mean                      =   8.3119491665890E-19
(PID.TID 0000.0001) %MON ke_vol                       =   7.5645000000000E+15
(PID.TID 0000.0001) %MON vort_r_min                   =  -1.1445706519526E-13
(PID.TID 0000.0001) %MON vort_r_max                   =   1.2396598325163E-13
(PID.TID 0000.0001) %MON vort_a_mean                  =   8.2300000000000E-05
(PID.TID 0000.0001) %MON vort_a_sd                    =   7.1297555115592E-06
(PID.TID 0000.0001) %MON vort_p_mean                  =   8.3303658536586E-05
(PID.TID 0000.0001) %MON vort_p_sd                    =   1.7411470229794E-05
(PID.TID 0000.0001) %MON surfExpan_theta_mean         =  -7.7665816115823E-27
(PID.TID 0000.0001) %MON surfExpan_salt_mean          =  -1.1648003541408E-26
(PID.TID 0000.0001) // =======================================================
(PID.TID 0000.0001) // End MONITOR dynamic field statistics
(PID.TID 0000.0001) // =======================================================
 cg2d: Sum(rhs),rhsMax =  -1.25843511954089E-02  3.23301932818902E-10
 cg2d: Sum(rhs),rhsMax =  -1.26284626743734E-02  3.22172638412194E-10
 cg2d: Sum(rhs),rhsMax =  -1.26736791942844E-02  3.21023212295352E-10
 cg2d: Sum(rhs),rhsMax =  -1.27194492397279E-02  3.19868037601403E-10
 cg2d: Sum(rhs),rhsMax =  -1.27669021013452E-02  3.18679135519073E-10
 cg2d: Sum(rhs),rhsMax =  -1.28143604052247E-02  3.17498903925672E-10
 cg2d: Sum(rhs),rhsMax =  -1.28639872362270E-02  3.16274057366851E-10
 cg2d: Sum(rhs),rhsMax =  -1.29131638847147E-02  3.15069608421383E-10
 cg2d: Sum(rhs),rhsMax =  -1.29647758980916E-02  3.13815338785702E-10
 cg2d: Sum(rhs),rhsMax =  -1.30158248350215E-02  3.12584537526701E-10
 cg2d: Sum(rhs),rhsMax =  -1.30692258043075E-02  3.11307317910100E-10
 cg2d: Sum(rhs),rhsMax =  -1.31223058073936E-02  3.10048076602259E-10
 cg2d: Sum(rhs),rhsMax =  -1.31775275908113E-02  3.08748791546770E-10
 cg2d: Sum(rhs),rhsMax =  -1.32325668720524E-02  3.07464590854245E-10
 cg2d: Sum(rhs),rhsMax =  -1.32896412017023E-02  3.06144141656083E-10
 cg2d: Sum(rhs),rhsMax =  -1.33465659134652E-02  3.04838403001472E-10
(PID.TID 0000.0001)      cg2d_init_res =   3.47060305624912E-01
(PID.TID 0000.0001)      cg2d_iters(min,last) =      -1     552
(PID.TID 0000.0001)      cg2d_last_res =   9.90327091467636E-08
(PID.TID 0000.0001) // =======================================================
(PID.TID 0000.0001) // Begin MONITOR dynamic field statistics
(PID.TID 0000.0001) // =======================================================
(PID.TID 0000.0001) %MON time_tsnumber                =                  3632
(PID.TID 0000.0001) %MON time_secondsf                =   1.9612800000000E+07
(PID.TID 0000.0001) %MON dynstat_eta_max              =   4.2540763804855E-09
(PID.TID 0000.0001) %MON dynstat_eta_min              =  -2.3631920539526E-09
(PID.TID 0000.0001) %MON dynstat_eta_mean             =   3.9209067909881E-13
(PID.TID 0000.0001) %MON dynstat_eta_sd               =   1.5729609104940E-09
(PID.TID 0000.0001) %MON dynstat_eta_del2             =   1.2912663538305E-14
(PID.TID 0000.0001) %MON dynstat_uvel_max             =   2.3799751807974E-09
(PID.TID 0000.0001) %MON dynstat_uvel_min             =  -2.0657986248836E-09
(PID.TID 0000.0001) %MON dynstat_uvel_mean            =  -1.7149708544340E-13
(PID.TID 0000.0001) %MON dynstat_uvel_sd              =   7.0363075431054E-10
(PID.TID 0000.0001) %MON dynstat_uvel_del2            =   4.6958270225178E-14
(PID.TID 0000.0001) %MON dynstat_vvel_max             =   3.1377280291131E-09
(PID.TID 0000.0001) %MON dynstat_vvel_min             =  -2.5043758336051E-09
(PID.TID 0000.0001) %MON dynstat_vvel_mean            =   5.6973800508921E-15
(PID.TID 0000.0001) %MON dynstat_vvel_sd              =   1.0730609984117E-09
(PID.TID 0000.0001) %MON dynstat_vvel_del2            =   6.0741960556466E-14
(PID.TID 0000.0001) %MON dynstat_wvel_max             =   9.0013755255081E-15
(PID.TID 0000.0001) %MON dynstat_wvel_min             =  -7.9565826385797E-15
(PID.TID 0000.0001) %MON dynstat_wvel_mean            =  -2.6131105517822E-28
(PID.TID 0000.0001) %MON dynstat_wvel_sd              =   3.9349433943122E-15
(PID.TID 0000.0001) %MON dynstat_wvel_del2            =   2.6400421808871E-20
(PID.TID 0000.0001) %MON dynstat_theta_max            =   2.0000000000000E+01
(PID.TID 0000.0001) %MON dynstat_theta_min            =   2.0000000000000E+01
(PID.TID 0000.0001) %MON dynstat_theta_mean           =   2.0000000000000E+01
(PID.TID 0000.0001) %MON dynstat_theta_sd             =   0.0000000000000E+00
(PID.TID 0000.0001) %MON dynstat_theta_del2           =   0.0000000000000E+00
(PID.TID 0000.0001) %MON dynstat_salt_max             =   3.0000000000000E+01
(PID.TID 0000.0001) %MON dynstat_salt_min             =   3.0000000000000E+01
(PID.TID 0000.0001) %MON dynstat_salt_mean            =   3.0000000000000E+01
(PID.TID 0000.0001) %MON dynstat_salt_sd              =   0.0000000000000E+00
(PID.TID 0000.0001) %MON dynstat_salt_del2            =   0.0000000000000E+00
(PID.TID 0000.0001) %MON trAdv_CFL_u_max              =   2.5750563657863E-09
(PID.TID 0000.0001) %MON trAdv_CFL_v_max              =   3.3958787053128E-09
(PID.TID 0000.0001) %MON trAdv_CFL_w_max              =   9.7619598544707E-15
(PID.TID 0000.0001) %MON advcfl_uvel_max              =   2.5703731952612E-09
(PID.TID 0000.0001) %MON advcfl_vvel_max              =   3.3887462714422E-09
(PID.TID 0000.0001) %MON advcfl_wvel_max              =   1.9442971135097E-14
(PID.TID 0000.0001) %MON advcfl_W_hf_max              =   0.0000000000000E+00
(PID.TID 0000.0001) %MON pe_b_mean                    =   2.4271962622632E-21
(PID.TID 0000.0001) %MON ke_max                       =   4.9225157979659E-18
(PID.TID 0000.0001) %MON ke_mean                      =   8.1993142819324E-19
(PID.TID 0000.0001) %MON ke_vol                       =   7.5645000000000E+15
(PID.TID 0000.0001) %MON vort_r_min                   =  -1.2014026500345E-13
(PID.TID 0000.0001) %MON vort_r_max                   =   1.1771762676575E-13
(PID.TID 0000.0001) %MON vort_a_mean                  =   8.2299999999999E-05
(PID.TID 0000.0001) %MON vort_a_sd                    =   7.1297555115693E-06
(PID.TID 0000.0001) %MON vort_p_mean                  =   8.3303658536584E-05
(PID.TID 0000.0001) %MON vort_p_sd                    =   1.7411470229790E-05
(PID.TID 0000.0001) %MON surfExpan_theta_mean         =  -5.2419318946326E-27
(PID.TID 0000.0001) %MON surfExpan_salt_mean          =  -7.8463434958689E-27
(PID.TID 0000.0001) // =======================================================
(PID.TID 0000.0001) // End MONITOR dynamic field statistics
(PID.TID 0000.0001) // =======================================================
 cg2d: Sum(rhs),rhsMax =  -1.34055242189221E-02  3.03497707945870E-10
 cg2d: Sum(rhs),rhsMax =  -1.34642591181525E-02  3.02173767842218E-10
 cg2d: Sum(rhs),rhsMax =  -1.35251323250651E-02  3.00813762423395E-10
 cg2d: Sum(rhs),rhsMax =  -1.35856017897896E-02  2.99474844140804E-10
 cg2d: Sum(rhs),rhsMax =  -1.36484201292807E-02  2.98096481268015E-10
 cg2d: Sum(rhs),rhsMax =  -1.37105492841175E-02  2.96745663696781E-10
 cg2d: Sum(rhs),rhsMax =  -1.37750564844528E-02  2.95356035879369E-10
 cg2d: Sum(rhs),rhsMax =  -1.38390582954644E-02  2.93990098026710E-10
 cg2d: Sum(rhs),rhsMax =  -1.38852034808726E-02  2.93013072332367E-10
 cg2d: Sum(rhs),rhsMax =  -1.39106455079578E-02  2.92477164564071E-10
 cg2d: Sum(rhs),rhsMax =  -1.39383531786293E-02  2.91895758894948E-10
 cg2d: Sum(rhs),rhsMax =  -1.39683453635291E-02  2.91269015740041E-10
 cg2d: Sum(rhs),rhsMax =  -1.40006427399132E-02  2.90597103850488E-10
 cg2d: Sum(rhs),rhsMax =  -1.40352678547354E-02  2.89880200705775E-10
 cg2d: Sum(rhs),rhsMax =  -1.40722451093969E-02  2.89118492185231E-10
 cg2d: Sum(rhs),rhsMax =  -1.41116009002794E-02  2.88312172605267E-10
(PID.TID 0000.0001)      cg2d_init_res =   3.60497906917289E-01
(PID.TID 0000.0001)      cg2d_iters(min,last) =      -1     552
(PID.TID 0000.0001)      cg2d_last_res =   9.88609988867343E-08
(PID.TID 0000.0001) // =======================================================
(PID.TID 0000.0001) // Begin MONITOR dynamic field statistics
(PID.TID 0000.0001) // =======================================================
(PID.TID 0000.0001) %MON time_tsnumber                =                  3648
(PID.TID 0000.0001) %MON time_secondsf                =   1.9699200000000E+07
(PID.TID 0000.0001) %MON dynstat_eta_max              =   4.4339075714052E-09
(PID.TID 0000.0001) %MON dynstat_eta_min              =  -2.4914670200874E-09
(PID.TID 0000.0001) %MON dynstat_eta_mean             =   3.9209072401437E-13
(PID.TID 0000.0001) %MON dynstat_eta_sd               =   1.5699057772680E-09
(PID.TID 0000.0001) %MON dynstat_eta_del2             =   1.2777181042101E-14
(PID.TID 0000.0001) %MON dynstat_uvel_max             =   2.2884605267048E-09
(PID.TID 0000.0001) %MON dynstat_uvel_min             =  -2.0412598712880E-09
(PID.TID 0000.0001) %MON dynstat_uvel_mean            =  -1.4804631204113E-13
(PID.TID 0000.0001) %MON dynstat_uvel_sd              =   6.8072332402590E-10
(PID.TID 0000.0001) %MON dynstat_uvel_del2            =   4.5463436376150E-14
(PID.TID 0000.0001) %MON dynstat_vvel_max             =   3.0035278374021E-09
(PID.TID 0000.0001) %MON dynstat_vvel_min             =  -2.3529308662491E-09
(PID.TID 0000.0001) %MON dynstat_vvel_mean            =   5.7848011153456E-15
(PID.TID 0000.0001) %MON dynstat_vvel_sd              =   1.0774410681577E-09
(PID.TID 0000.0001) %MON dynstat_vvel_del2            =   6.0561109825529E-14
(PID.TID 0000.0001) %MON dynstat_wvel_max             =   8.3326168415221E-15
(PID.TID 0000.0001) %MON dynstat_wvel_min             =  -7.6056663660118E-15
(PID.TID 0000.0001) %MON dynstat_wvel_mean            =  -1.6294819798310E-28
(PID.TID 0000.0001) %MON dynstat_wvel_sd              =   3.8869164131641E-15
(PID.TID 0000.0001) %MON dynstat_wvel_del2            =   2.6069087799878E-20
(PID.TID 0000.0001) %MON dynstat_theta_max            =   2.0000000000000E+01
(PID.TID 0000.0001) %MON dynstat_theta_min            =   2.0000000000000E+01
(PID.TID 0000.0001) %MON dynstat_theta_mean           =   2.0000000000000E+01
(PID.TID 0000.0001) %MON dynstat_theta_sd             =   0.0000000000000E+00
(PID.TID 0000.0001) %MON dynstat_theta_del2           =   0.0000000000000E+00
(PID.TID 0000.0001) %MON dynstat_salt_max             =   3.0000000000000E+01
(PID.TID 0000.0001) %MON dynstat_salt_min             =   3.0000000000000E+01
(PID.TID 0000.0001) %MON dynstat_salt_mean            =   3.0000000000000E+01
(PID.TID 0000.0001) %MON dynstat_salt_sd              =   0.0000000000000E+00
(PID.TID 0000.0001) %MON dynstat_salt_del2            =   0.0000000000000E+00
(PID.TID 0000.0001) %MON trAdv_CFL_u_max              =   2.4788452428181E-09
(PID.TID 0000.0001) %MON trAdv_CFL_v_max              =   3.2544469373444E-09
(PID.TID 0000.0001) %MON trAdv_CFL_w_max              =   9.0463562688825E-15
(PID.TID 0000.0001) %MON advcfl_uvel_max              =   2.4715373688412E-09
(PID.TID 0000.0001) %MON advcfl_vvel_max              =   3.2438100643943E-09
(PID.TID 0000.0001) %MON advcfl_wvel_max              =   1.7998452377688E-14
(PID.TID 0000.0001) %MON advcfl_W_hf_max              =   0.0000000000000E+00
(PID.TID 0000.0001) %MON pe_b_mean                    =   2.4177768214732E-21
(PID.TID 0000.0001) %MON ke_max                       =   4.5101925083264E-18
(PID.TID 0000.0001) %MON ke_mean                      =   8.0883041196809E-19
(PID.TID 0000.0001) %MON ke_vol                       =   7.5645000000000E+15
(PID.TID 0000.0001) %MON vort_r_min                   =  -1.2099682047226E-13
(PID.TID 0000.0001) %MON vort_r_max                   =   1.1006358633940E-13
(PID.TID 0000.0001) %MON vort_a_mean                  =   8.2299999999999E-05
(PID.TID 0000.0001) %MON vort_a_sd                    =   7.1297555115719E-06
(PID.TID 0000.0001) %MON vort_p_mean                  =   8.3303658536584E-05
(PID.TID 0000.0001) %MON vort_p_sd                    =   1.7411470229774E-05
(PID.TID 0000.0001) %MON surfExpan_theta_mean         =  -3.2170567758881E-27
(PID.TID 0000.0001) %MON surfExpan_salt_mean          =  -4.8181388433890E-27
(PID.TID 0000.0001) // =======================================================
(PID.TID 0000.0001) // End MONITOR dynamic field statistics
(PID.TID 0000.0001) // =======================================================
 cg2d: Sum(rhs),rhsMax =  -1.41533635766088E-02  2.87461444650872E-10
 cg2d: Sum(rhs),rhsMax =  -1.41975416629679E-02  2.86566960825154E-10
 cg2d: Sum(rhs),rhsMax =  -1.42441339595933E-02  2.85629607490248E-10
 cg2d: Sum(rhs),rhsMax =  -1.42932380059422E-02  2.84648335929144E-10
 cg2d: Sum(rhs),rhsMax =  -1.43448907607081E-02  2.83623382498905E-10
 cg2d: Sum(rhs),rhsMax =  -1.43991314346626E-02  2.82554991709674E-10
 cg2d: Sum(rhs),rhsMax =  -1.44560016385024E-02  2.81443416167301E-10
 cg2d: Sum(rhs),rhsMax =  -1.45155454566164E-02  2.80288916513033E-10
 cg2d: Sum(rhs),rhsMax =  -1.45778095029468E-02  2.79091761362509E-10
 cg2d: Sum(rhs),rhsMax =  -1.46428430470433E-02  2.77852227242662E-10
 cg2d: Sum(rhs),rhsMax =  -1.47106980901736E-02  2.76570598527598E-10
 cg2d: Sum(rhs),rhsMax =  -1.47814294899273E-02  2.75247167371914E-10
 cg2d: Sum(rhs),rhsMax =  -1.48550950731510E-02  2.73882233643621E-10
 cg2d: Sum(rhs),rhsMax =  -1.49317557303227E-02  2.72476104854615E-10
 cg2d: Sum(rhs),rhsMax =  -1.50114755987739E-02  2.71029096090200E-10
 cg2d: Sum(rhs),rhsMax =  -1.50943221380284E-02  2.69541529937027E-10
(PID.TID 0000.0001)      cg2d_init_res =   3.78038215347062E-01
(PID.TID 0000.0001)      cg2d_iters(min,last) =      -1     552
(PID.TID 0000.0001)      cg2d_last_res =   9.51825479208866E-08
(PID.TID 0000.0001) // =======================================================
(PID.TID 0000.0001) // Begin MONITOR dynamic field statistics
(PID.TID 0000.0001) // =======================================================
(PID.TID 0000.0001) %MON time_tsnumber                =                  3664
(PID.TID 0000.0001) %MON time_secondsf                =   1.9785600000000E+07
(PID.TID 0000.0001) %MON dynstat_eta_max              =   4.5306622111127E-09
(PID.TID 0000.0001) %MON dynstat_eta_min              =  -2.6211761801082E-09
(PID.TID 0000.0001) %MON dynstat_eta_mean             =   3.9209075900918E-13
(PID.TID 0000.0001) %MON dynstat_eta_sd               =   1.5652225068772E-09
(PID.TID 0000.0001) %MON dynstat_eta_del2             =   1.2659228618942E-14
(PID.TID 0000.0001) %MON dynstat_uvel_max             =   2.1625731152698E-09
(PID.TID 0000.0001) %MON dynstat_uvel_min             =  -1.9876972485110E-09
(PID.TID 0000.0001) %MON dynstat_uvel_mean            =  -1.1731189938195E-13
(PID.TID 0000.0001) %MON dynstat_uvel_sd              =   6.5302716213580E-10
(PID.TID 0000.0001) %MON dynstat_uvel_del2            =   4.4745596790745E-14
(PID.TID 0000.0001) %MON dynstat_vvel_max             =   2.8210084006700E-09
(PID.TID 0000.0001) %MON dynstat_vvel_min             =  -2.4263952094119E-09
(PID.TID 0000.0001) %MON dynstat_vvel_mean            =   5.5372896350670E-15
(PID.TID 0000.0001) %MON dynstat_vvel_sd              =   1.0843410156524E-09
(PID.TID 0000.0001) %MON dynstat_vvel_del2            =   5.9710765530825E-14
(PID.TID 0000.0001) %MON dynstat_wvel_max             =   7.5773621571740E-15
(PID.TID 0000.0001) %MON dynstat_wvel_min             =  -7.6023663538038E-15
(PID.TID 0000.0001) %MON dynstat_wvel_mean            =  -9.1828548642854E-29
(PID.TID 0000.0001) %MON dynstat_wvel_sd              =   3.8419882550837E-15
(PID.TID 0000.0001) %MON dynstat_wvel_del2            =   2.5646071779843E-20
(PID.TID 0000.0001) %MON dynstat_theta_max            =   2.0000000000000E+01
(PID.TID 0000.0001) %MON dynstat_theta_min            =   2.0000000000000E+01
(PID.TID 0000.0001) %MON dynstat_theta_mean           =   2.0000000000000E+01
(PID.TID 0000.0001) %MON dynstat_theta_sd             =   0.0000000000000E+00
(PID.TID 0000.0001) %MON dynstat_theta_del2           =   0.0000000000000E+00
(PID.TID 0000.0001) %MON dynstat_salt_max             =   3.0000000000000E+01
(PID.TID 0000.0001) %MON dynstat_salt_min             =   3.0000000000000E+01
(PID.TID 0000.0001) %MON dynstat_salt_mean            =   3.0000000000000E+01
(PID.TID 0000.0001) %MON dynstat_salt_sd              =   0.0000000000000E+00
(PID.TID 0000.0001) %MON dynstat_salt_del2            =   0.0000000000000E+00
(PID.TID 0000.0001) %MON trAdv_CFL_u_max              =   2.3448755857543E-09
(PID.TID 0000.0001) %MON trAdv_CFL_v_max              =   3.0601458319470E-09
(PID.TID 0000.0001) %MON trAdv_CFL_w_max              =   8.2350277832877E-15
(PID.TID 0000.0001) %MON advcfl_uvel_max              =   2.3355789644914E-09
(PID.TID 0000.0001) %MON advcfl_vvel_max              =   3.0466890727236E-09
(PID.TID 0000.0001) %MON advcfl_wvel_max              =   1.6421111324216E-14
(PID.TID 0000.0001) %MON advcfl_W_hf_max              =   0.0000000000000E+00
(PID.TID 0000.0001) %MON pe_b_mean                    =   2.4033731384244E-21
(PID.TID 0000.0001) %MON ke_max                       =   3.9790856224461E-18
(PID.TID 0000.0001) %MON ke_mean                      =   7.9786337803651E-19
(PID.TID 0000.0001) %MON ke_vol                       =   7.5645000000000E+15
(PID.TID 0000.0001) %MON vort_r_min                   =  -1.1702150327580E-13
(PID.TID 0000.0001) %MON vort_r_max                   =   1.0178113176102E-13
(PID.TID 0000.0001) %MON vort_a_mean                  =   8.2300000000000E-05
(PID.TID 0000.0001) %MON vort_a_sd                    =   7.1297555115510E-06
(PID.TID 0000.0001) %MON vort_p_mean                  =   8.3303658536585E-05
(PID.TID 0000.0001) %MON vort_p_sd                    =   1.7411470229738E-05
(PID.TID 0000.0001) %MON surfExpan_theta_mean         =  -1.8338439668277E-27
(PID.TID 0000.0001) %MON surfExpan_salt_mean          =  -2.7592446778198E-27
(PID.TID 0000.0001) // =======================================================
(PID.TID 0000.0001) // End MONITOR dynamic field statistics
(PID.TID 0000.0001) // =======================================================
 cg2d: Sum(rhs),rhsMax =  -1.51803663422763E-02  2.68013736408968E-10
 cg2d: Sum(rhs),rhsMax =  -1.52696828437787E-02  2.66446052872371E-10
 cg2d: Sum(rhs),rhsMax =  -1.53623501284478E-02  2.64838823969275E-10
 cg2d: Sum(rhs),rhsMax =  -1.54584506817589E-02  2.63192401539499E-10
 cg2d: Sum(rhs),rhsMax =  -1.55580712094728E-02  2.61507144541050E-10
 cg2d: Sum(rhs),rhsMax =  -1.56613028536373E-02  2.59783418909302E-10
 cg2d: Sum(rhs),rhsMax =  -1.57681751348092E-02  2.58022680989066E-10
 cg2d: Sum(rhs),rhsMax =  -1.58788100293929E-02  2.56224920963889E-10
 cg2d: Sum(rhs),rhsMax =  -1.59933457724852E-02  2.54389977084669E-10
 cg2d: Sum(rhs),rhsMax =  -1.61118930111230E-02  2.52518241213338E-10
 cg2d: Sum(rhs),rhsMax =  -1.62345680189569E-02  2.50610111754994E-10
 cg2d: Sum(rhs),rhsMax =  -1.63614930458737E-02  2.48665993637434E-10
 cg2d: Sum(rhs),rhsMax =  -1.64927966200224E-02  2.46686298161148E-10
 cg2d: Sum(rhs),rhsMax =  -1.66286139309725E-02  2.44671442960908E-10
 cg2d: Sum(rhs),rhsMax =  -1.67690871815819E-02  2.42621851852328E-10
 cg2d: Sum(rhs),rhsMax =  -1.69143660142713E-02  2.40537954844387E-10
(PID.TID 0000.0001)      cg2d_init_res =   4.15335052475015E-01
(PID.TID 0000.0001)      cg2d_iters(min,last) =      -1     550
(PID.TID 0000.0001)      cg2d_last_res =   9.48412058354089E-08
(PID.TID 0000.0001) // =======================================================
(PID.TID 0000.0001) // Begin MONITOR dynamic field statistics
(PID.TID 0000.0001) // =======================================================
(PID.TID 0000.0001) %MON time_tsnumber                =                  3680
(PID.TID 0000.0001) %MON time_secondsf                =   1.9872000000000E+07
(PID.TID 0000.0001) %MON dynstat_eta_max              =   4.5421258427919E-09
(PID.TID 0000.0001) %MON dynstat_eta_min              =  -2.7674586581801E-09
(PID.TID 0000.0001) %MON dynstat_eta_mean             =   3.9209079030223E-13
(PID.TID 0000.0001) %MON dynstat_eta_sd               =   1.5575857069305E-09
(PID.TID 0000.0001) %MON dynstat_eta_del2             =   1.2549483554041E-14
(PID.TID 0000.0001) %MON dynstat_uvel_max             =   2.0130364662641E-09
(PID.TID 0000.0001) %MON dynstat_uvel_min             =  -1.9092598932502E-09
(PID.TID 0000.0001) %MON dynstat_uvel_mean            =  -8.1017893152409E-14
(PID.TID 0000.0001) %MON dynstat_uvel_sd              =   6.2486933186660E-10
(PID.TID 0000.0001) %MON dynstat_uvel_del2            =   4.4815765926567E-14
(PID.TID 0000.0001) %MON dynstat_vvel_max             =   2.5990536716435E-09
(PID.TID 0000.0001) %MON dynstat_vvel_min             =  -2.6519380430930E-09
(PID.TID 0000.0001) %MON dynstat_vvel_mean            =   4.8757824478371E-15
(PID.TID 0000.0001) %MON dynstat_vvel_sd              =   1.0908824628361E-09
(PID.TID 0000.0001) %MON dynstat_vvel_del2            =   5.8184694517939E-14
(PID.TID 0000.0001) %MON dynstat_wvel_max             =   6.7843059539663E-15
(PID.TID 0000.0001) %MON dynstat_wvel_min             =  -8.3923498150895E-15
(PID.TID 0000.0001) %MON dynstat_wvel_mean            =  -2.5886227324189E-28
(PID.TID 0000.0001) %MON dynstat_wvel_sd              =   3.8039952745884E-15
(PID.TID 0000.0001) %MON dynstat_wvel_del2            =   2.5177372731735E-20
(PID.TID 0000.0001) %MON dynstat_theta_max            =   2.0000000000000E+01
(PID.TID 0000.0001) %MON dynstat_theta_min            =   2.0000000000000E+01
(PID.TID 0000.0001) %MON dynstat_theta_mean           =   2.0000000000000E+01
(PID.TID 0000.0001) %MON dynstat_theta_sd             =   0.0000000000000E+00
(PID.TID 0000.0001) %MON dynstat_theta_del2           =   0.0000000000000E+00
(PID.TID 0000.0001) %MON dynstat_salt_max             =   3.0000000000000E+01
(PID.TID 0000.0001) %MON dynstat_salt_min             =   3.0000000000000E+01
(PID.TID 0000.0001) %MON dynstat_salt_mean            =   3.0000000000000E+01
(PID.TID 0000.0001) %MON dynstat_salt_sd              =   0.0000000000000E+00
(PID.TID 0000.0001) %MON dynstat_salt_del2            =   0.0000000000000E+00
(PID.TID 0000.0001) %MON trAdv_CFL_u_max              =   2.1845011129255E-09
(PID.TID 0000.0001) %MON trAdv_CFL_v_max              =   2.8497838054080E-09
(PID.TID 0000.0001) %MON trAdv_CFL_w_max              =   7.3803696088559E-15
(PID.TID 0000.0001) %MON advcfl_uvel_max              =   2.1740793835652E-09
(PID.TID 0000.0001) %MON advcfl_vvel_max              =   2.8640930865404E-09
(PID.TID 0000.0001) %MON advcfl_wvel_max              =   1.8127475600593E-14
(PID.TID 0000.0001) %MON advcfl_W_hf_max              =   0.0000000000000E+00
(PID.TID 0000.0001) %MON pe_b_mean                    =   2.3799779937941E-21
(PID.TID 0000.0001) %MON ke_max                       =   3.5827147868717E-18
(PID.TID 0000.0001) %MON ke_mean                      =   7.8703074771040E-19
(PID.TID 0000.0001) %MON ke_vol                       =   7.5645000000000E+15
(PID.TID 0000.0001) %MON vort_r_min                   =  -1.0848671328084E-13
(PID.TID 0000.0001) %MON vort_r_max                   =   1.0231937040522E-13
(PID.TID 0000.0001) %MON vort_a_mean                  =   8.2300000000000E-05
(PID.TID 0000.0001) %MON vort_a_sd                    =   7.1297555115610E-06
(PID.TID 0000.0001) %MON vort_p_mean                  =   8.3303658536585E-05
(PID.TID 0000.0001) %MON vort_p_sd                    =   1.7411470229710E-05
(PID.TID 0000.0001) %MON surfExpan_theta_mean         =  -5.2139695616842E-27
(PID.TID 0000.0001) %MON surfExpan_salt_mean          =  -7.7796983680287E-27
(PID.TID 0000.0001) // =======================================================
(PID.TID 0000.0001) // End MONITOR dynamic field statistics
(PID.TID 0000.0001) // =======================================================
 cg2d: Sum(rhs),rhsMax =  -1.70243614751612E-02  2.38983825267428E-10
 cg2d: Sum(rhs),rhsMax =  -1.68957793837961E-02  2.40802566918274E-10
 cg2d: Sum(rhs),rhsMax =  -1.67722641010017E-02  2.42575900639052E-10
 cg2d: Sum(rhs),rhsMax =  -1.66536550572687E-02  2.44303552597680E-10
 cg2d: Sum(rhs),rhsMax =  -1.65387601626045E-02  2.46000733170118E-10
 cg2d: Sum(rhs),rhsMax =  -1.64283823018554E-02  2.47653547588984E-10
 cg2d: Sum(rhs),rhsMax =  -1.63225064264791E-02  2.49259953014336E-10
 cg2d: Sum(rhs),rhsMax =  -1.62210025587835E-02  2.50819713305983E-10
 cg2d: Sum(rhs),rhsMax =  -1.61237478081904E-02  2.52332602148992E-10
 cg2d: Sum(rhs),rhsMax =  -1.60306259923605E-02  2.53798402673151E-10
 cg2d: Sum(rhs),rhsMax =  -1.59415272492056E-02  2.55216908224452E-10
 cg2d: Sum(rhs),rhsMax =  -1.58563477576990E-02  2.56587921847710E-10
 cg2d: Sum(rhs),rhsMax =  -1.57749894188202E-02  2.57911256476096E-10
 cg2d: Sum(rhs),rhsMax =  -1.56973595238709E-02  2.59186734943234E-10
 cg2d: Sum(rhs),rhsMax =  -1.56233705229611E-02  2.60414190030280E-10
 cg2d: Sum(rhs),rhsMax =  -1.55529397795378E-02  2.61593464457322E-10
(PID.TID 0000.0001)      cg2d_init_res =   3.75260371845261E-01
(PID.TID 0000.0001)      cg2d_iters(min,last) =      -1     537
(PID.TID 0000.0001)      cg2d_last_res =   8.24154492058757E-08
(PID.TID 0000.0001) // =======================================================
(PID.TID 0000.0001) // Begin MONITOR dynamic field statistics
(PID.TID 0000.0001) // =======================================================
(PID.TID 0000.0001) %MON time_tsnumber                =                  3696
(PID.TID 0000.0001) %MON time_secondsf                =   1.9958400000000E+07
(PID.TID 0000.0001) %MON dynstat_eta_max              =   4.4691593578615E-09
(PID.TID 0000.0001) %MON dynstat_eta_min              =  -2.8469886266518E-09
(PID.TID 0000.0001) %MON dynstat_eta_mean             =   3.9209082784206E-13
(PID.TID 0000.0001) %MON dynstat_eta_sd               =   1.5461921938868E-09
(PID.TID 0000.0001) %MON dynstat_eta_del2             =   1.2436138417274E-14
(PID.TID 0000.0001) %MON dynstat_uvel_max             =   1.8596137068420E-09
(PID.TID 0000.0001) %MON dynstat_uvel_min             =  -1.8094719199164E-09
(PID.TID 0000.0001) %MON dynstat_uvel_mean            =  -4.1162487674885E-14
(PID.TID 0000.0001) %MON dynstat_uvel_sd              =   6.0097425057739E-10
(PID.TID 0000.0001) %MON dynstat_uvel_del2            =   4.5490788448935E-14
(PID.TID 0000.0001) %MON dynstat_vvel_max             =   2.3962248267628E-09
(PID.TID 0000.0001) %MON dynstat_vvel_min             =  -2.8409850357767E-09
(PID.TID 0000.0001) %MON dynstat_vvel_mean            =   3.7481026606625E-15
(PID.TID 0000.0001) %MON dynstat_vvel_sd              =   1.0944803959631E-09
(PID.TID 0000.0001) %MON dynstat_vvel_del2            =   5.6096357585232E-14
(PID.TID 0000.0001) %MON dynstat_wvel_max             =   5.9876014107951E-15
(PID.TID 0000.0001) %MON dynstat_wvel_min             =  -9.1004216395962E-15
(PID.TID 0000.0001) %MON dynstat_wvel_mean            =  -7.6898312908217E-29
(PID.TID 0000.0001) %MON dynstat_wvel_sd              =   3.7752919270988E-15
(PID.TID 0000.0001) %MON dynstat_wvel_del2            =   2.4701379869658E-20
(PID.TID 0000.0001) %MON dynstat_theta_max            =   2.0000000000000E+01
(PID.TID 0000.0001) %MON dynstat_theta_min            =   2.0000000000000E+01
(PID.TID 0000.0001) %MON dynstat_theta_mean           =   2.0000000000000E+01
(PID.TID 0000.0001) %MON dynstat_theta_sd             =   0.0000000000000E+00
(PID.TID 0000.0001) %MON dynstat_theta_del2           =   0.0000000000000E+00
(PID.TID 0000.0001) %MON dynstat_salt_max             =   3.0000000000000E+01
(PID.TID 0000.0001) %MON dynstat_salt_min             =   3.0000000000000E+01
(PID.TID 0000.0001) %MON dynstat_salt_mean            =   3.0000000000000E+01
(PID.TID 0000.0001) %MON dynstat_salt_sd              =   0.0000000000000E+00
(PID.TID 0000.0001) %MON dynstat_salt_del2            =   0.0000000000000E+00
(PID.TID 0000.0001) %MON trAdv_CFL_u_max              =   2.0184542043965E-09
(PID.TID 0000.0001) %MON trAdv_CFL_v_max              =   3.0564172082082E-09
(PID.TID 0000.0001) %MON trAdv_CFL_w_max              =   6.5195317339728E-15
(PID.TID 0000.0001) %MON advcfl_uvel_max              =   2.0083828033893E-09
(PID.TID 0000.0001) %MON advcfl_vvel_max              =   3.0682638386388E-09
(PID.TID 0000.0001) %MON advcfl_wvel_max              =   1.9656910741528E-14
(PID.TID 0000.0001) %MON advcfl_W_hf_max              =   0.0000000000000E+00
(PID.TID 0000.0001) %MON pe_b_mean                    =   2.3452869555423E-21
(PID.TID 0000.0001) %MON ke_max                       =   4.0749921710323E-18
(PID.TID 0000.0001) %MON ke_mean                      =   7.7635987852574E-19
(PID.TID 0000.0001) %MON ke_vol                       =   7.5645000000000E+15
(PID.TID 0000.0001) %MON vort_r_min                   =  -9.5894272735310E-14
(PID.TID 0000.0001) %MON vort_r_max                   =   1.0288356656997E-13
(PID.TID 0000.0001) %MON vort_a_mean                  =   8.2300000000001E-05
(PID.TID 0000.0001) %MON vort_a_sd                    =   7.1297555115372E-06
(PID.TID 0000.0001) %MON vort_p_mean                  =   8.3303658536587E-05
(PID.TID 0000.0001) %MON vort_p_sd                    =   1.7411470229660E-05
(PID.TID 0000.0001) %MON surfExpan_theta_mean         =  -1.5726382431554E-27
(PID.TID 0000.0001) %MON surfExpan_salt_mean          =  -2.3535736190653E-27
(PID.TID 0000.0001) // =======================================================
(PID.TID 0000.0001) // End MONITOR dynamic field statistics
(PID.TID 0000.0001) // =======================================================
 cg2d: Sum(rhs),rhsMax =  -1.54859893034914E-02  2.62724410930318E-10
 cg2d: Sum(rhs),rhsMax =  -1.54224455989802E-02  2.63806892088153E-10
 cg2d: Sum(rhs),rhsMax =  -1.53622393331720E-02  2.64840780741524E-10
 cg2d: Sum(rhs),rhsMax =  -1.53053053411596E-02  2.65825959613628E-10
 cg2d: Sum(rhs),rhsMax =  -1.52515823064089E-02  2.66762321332988E-10
 cg2d: Sum(rhs),rhsMax =  -1.52006241667932E-02  2.67656609208939E-10
 cg2d: Sum(rhs),rhsMax =  -1.51521462829342E-02  2.68512953184642E-10
 cg2d: Sum(rhs),rhsMax =  -1.51067273721066E-02  2.69320248587461E-10
 cg2d: Sum(rhs),rhsMax =  -1.50643190549412E-02  2.70078427401397E-10
 cg2d: Sum(rhs),rhsMax =  -1.50248761656086E-02  2.70787431728625E-10
 cg2d: Sum(rhs),rhsMax =  -1.49883567000094E-02  2.71447213506712E-10
 cg2d: Sum(rhs),rhsMax =  -1.49547216182983E-02  2.72057734932422E-10
 cg2d: Sum(rhs),rhsMax =  -1.49239348558551E-02  2.72618968228228E-10
 cg2d: Sum(rhs),rhsMax =  -1.48959631538006E-02  2.73130895544881E-10
 cg2d: Sum(rhs),rhsMax =  -1.48707760066201E-02  2.73593509130099E-10
 cg2d: Sum(rhs),rhsMax =  -1.48483455568663E-02  2.74006811386765E-10
(PID.TID 0000.0001)      cg2d_init_res =   3.53400618737116E-01
(PID.TID 0000.0001)      cg2d_iters(min,last) =      -1     544
(PID.TID 0000.0001)      cg2d_last_res =   9.76259302492605E-08
(PID.TID 0000.0001) // =======================================================
(PID.TID 0000.0001) // Begin MONITOR dynamic field statistics
(PID.TID 0000.0001) // =======================================================
(PID.TID 0000.0001) %MON time_tsnumber                =                  3712
(PID.TID 0000.0001) %MON time_secondsf                =   2.0044800000000E+07
(PID.TID 0000.0001) %MON dynstat_eta_max              =   4.3165759268787E-09
(PID.TID 0000.0001) %MON dynstat_eta_min              =  -2.8545192032347E-09
(PID.TID 0000.0001) %MON dynstat_eta_mean             =   3.9209086940503E-13
(PID.TID 0000.0001) %MON dynstat_eta_sd               =   1.5309078551660E-09
(PID.TID 0000.0001) %MON dynstat_eta_del2             =   1.2307691843124E-14
(PID.TID 0000.0001) %MON dynstat_uvel_max             =   1.7160827390583E-09
(PID.TID 0000.0001) %MON dynstat_uvel_min             =  -1.6941392811666E-09
(PID.TID 0000.0001) %MON dynstat_uvel_mean            =   9.2793257986837E-17
(PID.TID 0000.0001) %MON dynstat_uvel_sd              =   5.8542258552208E-10
(PID.TID 0000.0001) %MON dynstat_uvel_del2            =   4.6459838345466E-14
(PID.TID 0000.0001) %MON dynstat_vvel_max             =   2.3787102887315E-09
(PID.TID 0000.0001) %MON dynstat_vvel_min             =  -2.9937614254551E-09
(PID.TID 0000.0001) %MON dynstat_vvel_mean            =   2.1325835784283E-15
(PID.TID 0000.0001) %MON dynstat_vvel_sd              =   1.0933103147212E-09
(PID.TID 0000.0001) %MON dynstat_vvel_del2            =   5.3670232697679E-14
(PID.TID 0000.0001) %MON dynstat_wvel_max             =   5.2016789670040E-15
(PID.TID 0000.0001) %MON dynstat_wvel_min             =  -9.6734215720984E-15
(PID.TID 0000.0001) %MON dynstat_wvel_mean            =  -7.8102501841056E-29
(PID.TID 0000.0001) %MON dynstat_wvel_sd              =   3.7562017808928E-15
(PID.TID 0000.0001) %MON dynstat_wvel_del2            =   2.4288345447298E-20
(PID.TID 0000.0001) %MON dynstat_theta_max            =   2.0000000000000E+01
(PID.TID 0000.0001) %MON dynstat_theta_min            =   2.0000000000000E+01
(PID.TID 0000.0001) %MON dynstat_theta_mean           =   2.0000000000000E+01
(PID.TID 0000.0001) %MON dynstat_theta_sd             =   0.0000000000000E+00
(PID.TID 0000.0001) %MON dynstat_theta_del2           =   0.0000000000000E+00
(PID.TID 0000.0001) %MON dynstat_salt_max             =   3.0000000000000E+01
(PID.TID 0000.0001) %MON dynstat_salt_min             =   3.0000000000000E+01
(PID.TID 0000.0001) %MON dynstat_salt_mean            =   3.0000000000000E+01
(PID.TID 0000.0001) %MON dynstat_salt_sd              =   0.0000000000000E+00
(PID.TID 0000.0001) %MON dynstat_salt_del2            =   0.0000000000000E+00
(PID.TID 0000.0001) %MON trAdv_CFL_u_max              =   1.8628910267890E-09
(PID.TID 0000.0001) %MON trAdv_CFL_v_max              =   3.2243685526793E-09
(PID.TID 0000.0001) %MON trAdv_CFL_w_max              =   5.6698234541352E-15
(PID.TID 0000.0001) %MON advcfl_uvel_max              =   1.8533693581829E-09
(PID.TID 0000.0001) %MON advcfl_vvel_max              =   3.2332623394915E-09
(PID.TID 0000.0001) %MON advcfl_wvel_max              =   2.0894590595733E-14
(PID.TID 0000.0001) %MON advcfl_W_hf_max              =   0.0000000000000E+00
(PID.TID 0000.0001) %MON pe_b_mean                    =   2.2991491134641E-21
(PID.TID 0000.0001) %MON ke_max                       =   4.5011096387723E-18
(PID.TID 0000.0001) %MON ke_mean                      =   7.6589741207384E-19
(PID.TID 0000.0001) %MON ke_vol                       =   7.5645000000000E+15
(PID.TID 0000.0001) %MON vort_r_min                   =  -8.0546807801674E-14
(PID.TID 0000.0001) %MON vort_r_max                   =   1.0971964430759E-13
(PID.TID 0000.0001) %MON vort_a_mean                  =   8.2299999999999E-05
(PID.TID 0000.0001) %MON vort_a_sd                    =   7.1297555115691E-06
(PID.TID 0000.0001) %MON vort_p_mean                  =   8.3303658536584E-05
(PID.TID 0000.0001) %MON vort_p_sd                    =   1.7411470229630E-05
(PID.TID 0000.0001) %MON surfExpan_theta_mean         =  -1.5616624787969E-27
(PID.TID 0000.0001) %MON surfExpan_salt_mean          =  -2.3231668774661E-27
(PID.TID 0000.0001) // =======================================================
(PID.TID 0000.0001) // End MONITOR dynamic field statistics
(PID.TID 0000.0001) // =======================================================
 cg2d: Sum(rhs),rhsMax =  -1.48286466277549E-02  2.74370814182892E-10
 cg2d: Sum(rhs),rhsMax =  -1.48116565404553E-02  2.74685539952115E-10
 cg2d: Sum(rhs),rhsMax =  -1.47973551263402E-02  2.74951020821643E-10
 cg2d: Sum(rhs),rhsMax =  -1.47857246627443E-02  2.75167299170903E-10
 cg2d: Sum(rhs),rhsMax =  -1.47767498255770E-02  2.75334426897664E-10
 cg2d: Sum(rhs),rhsMax =  -1.47704176607079E-02  2.75452466034215E-10
 cg2d: Sum(rhs),rhsMax =  -1.47659850991841E-02  2.75535154833091E-10
 cg2d: Sum(rhs),rhsMax =  -1.47639186138246E-02  2.75573722661779E-10
 cg2d: Sum(rhs),rhsMax =  -1.47644681266921E-02  2.75563467696229E-10
 cg2d: Sum(rhs),rhsMax =  -1.47676288543180E-02  2.75504490095444E-10
 cg2d: Sum(rhs),rhsMax =  -1.47733982524839E-02  2.75396899770072E-10
 cg2d: Sum(rhs),rhsMax =  -1.47817760128598E-02  2.75240816374020E-10
 cg2d: Sum(rhs),rhsMax =  -1.47927640651834E-02  2.75036369090239E-10
 cg2d: Sum(rhs),rhsMax =  -1.48063665413426E-02  2.74783696883577E-10
 cg2d: Sum(rhs),rhsMax =  -1.48225898245498E-02  2.74482948280626E-10
 cg2d: Sum(rhs),rhsMax =  -1.48414425013311E-02  2.74134281300089E-10
(PID.TID 0000.0001)      cg2d_init_res =   3.50083719790359E-01
(PID.TID 0000.0001)      cg2d_iters(min,last) =      -1     549
(PID.TID 0000.0001)      cg2d_last_res =   9.60154252409754E-08
(PID.TID 0000.0001) // =======================================================
(PID.TID 0000.0001) // Begin MONITOR dynamic field statistics
(PID.TID 0000.0001) // =======================================================
(PID.TID 0000.0001) %MON time_tsnumber                =                  3728
(PID.TID 0000.0001) %MON time_secondsf                =   2.0131200000000E+07
(PID.TID 0000.0001) %MON dynstat_eta_max              =   4.0947765094917E-09
(PID.TID 0000.0001) %MON dynstat_eta_min              =  -2.7875616438264E-09
(PID.TID 0000.0001) %MON dynstat_eta_mean             =   3.9209090266619E-13
(PID.TID 0000.0001) %MON dynstat_eta_sd               =   1.5122918850833E-09
(PID.TID 0000.0001) %MON dynstat_eta_del2             =   1.2155531113434E-14
(PID.TID 0000.0001) %MON dynstat_uvel_max             =   1.5730216327897E-09
(PID.TID 0000.0001) %MON dynstat_uvel_min             =  -1.5686221366807E-09
(PID.TID 0000.0001) %MON dynstat_uvel_mean            =   4.0541557944329E-14
(PID.TID 0000.0001) %MON dynstat_uvel_sd              =   5.8043511534197E-10
(PID.TID 0000.0001) %MON dynstat_uvel_del2            =   4.7379911465957E-14
(PID.TID 0000.0001) %MON dynstat_vvel_max             =   2.3166526394182E-09
(PID.TID 0000.0001) %MON dynstat_vvel_min             =  -3.1147615539934E-09
(PID.TID 0000.0001) %MON dynstat_vvel_mean            =   3.9931460752044E-17
(PID.TID 0000.0001) %MON dynstat_vvel_sd              =   1.0865815085458E-09
(PID.TID 0000.0001) %MON dynstat_vvel_del2            =   5.1220376586918E-14
(PID.TID 0000.0001) %MON dynstat_wvel_max             =   4.4975359916877E-15
(PID.TID 0000.0001) %MON dynstat_wvel_min             =  -1.0091888772434E-14
(PID.TID 0000.0001) %MON dynstat_wvel_mean            =   8.1870263842478E-29
(PID.TID 0000.0001) %MON dynstat_wvel_sd              =   3.7449369279475E-15
(PID.TID 0000.0001) %MON dynstat_wvel_del2            =   2.3944420904979E-20
(PID.TID 0000.0001) %MON dynstat_theta_max            =   2.0000000000000E+01
(PID.TID 0000.0001) %MON dynstat_theta_min            =   2.0000000000000E+01
(PID.TID 0000.0001) %MON dynstat_theta_mean           =   2.0000000000000E+01
(PID.TID 0000.0001) %MON dynstat_theta_sd             =   0.0000000000000E+00
(PID.TID 0000.0001) %MON dynstat_theta_del2           =   0.0000000000000E+00
(PID.TID 0000.0001) %MON dynstat_salt_max             =   3.0000000000000E+01
(PID.TID 0000.0001) %MON dynstat_salt_min             =   3.0000000000000E+01
(PID.TID 0000.0001) %MON dynstat_salt_mean            =   3.0000000000000E+01
(PID.TID 0000.0001) %MON dynstat_salt_sd              =   0.0000000000000E+00
(PID.TID 0000.0001) %MON dynstat_salt_del2            =   0.0000000000000E+00
(PID.TID 0000.0001) %MON trAdv_CFL_u_max              =   1.7088645111293E-09
(PID.TID 0000.0001) %MON trAdv_CFL_v_max              =   3.3569899546360E-09
(PID.TID 0000.0001) %MON trAdv_CFL_w_max              =   4.8401358420214E-15
(PID.TID 0000.0001) %MON advcfl_uvel_max              =   1.6988633634128E-09
(PID.TID 0000.0001) %MON advcfl_vvel_max              =   3.3639424783129E-09
(PID.TID 0000.0001) %MON advcfl_wvel_max              =   2.1798479748458E-14
(PID.TID 0000.0001) %MON advcfl_W_hf_max              =   0.0000000000000E+00
(PID.TID 0000.0001) %MON pe_b_mean                    =   2.2435733883349E-21
(PID.TID 0000.0001) %MON ke_max                       =   4.8590310600540E-18
(PID.TID 0000.0001) %MON ke_mean                      =   7.5569766945622E-19
(PID.TID 0000.0001) %MON ke_vol                       =   7.5645000000000E+15
(PID.TID 0000.0001) %MON vort_r_min                   =  -7.6455655533826E-14
(PID.TID 0000.0001) %MON vort_r_max                   =   1.1294850330890E-13
(PID.TID 0000.0001) %MON vort_a_mean                  =   8.2300000000000E-05
(PID.TID 0000.0001) %MON vort_a_sd                    =   7.1297555115639E-06
(PID.TID 0000.0001) %MON vort_p_mean                  =   8.3303658536585E-05
(PID.TID 0000.0001) %MON vort_p_sd                    =   1.7411470229585E-05
(PID.TID 0000.0001) %MON surfExpan_theta_mean         =   1.5073816021347E-27
(PID.TID 0000.0001) %MON surfExpan_salt_mean          =   2.2606065882691E-27
(PID.TID 0000.0001) // =======================================================
(PID.TID 0000.0001) // End MONITOR dynamic field statistics
(PID.TID 0000.0001) // =======================================================
 cg2d: Sum(rhs),rhsMax =  -1.48629354424850E-02  2.73737863514338E-10
 cg2d: Sum(rhs),rhsMax =  -1.48870817566811E-02  2.73293871905964E-10
 cg2d: Sum(rhs),rhsMax =  -1.49138968406224E-02  2.72802492893486E-10
 cg2d: Sum(rhs),rhsMax =  -1.49433983955024E-02  2.72263922221374E-10
 cg2d: Sum(rhs),rhsMax =  -1.49756064676553E-02  2.71678364953191E-10
 cg2d: Sum(rhs),rhsMax =  -1.50104508282676E-02  2.71047708508458E-10
 cg2d: Sum(rhs),rhsMax =  -1.50470839691827E-02  2.70387825949012E-10
 cg2d: Sum(rhs),rhsMax =  -1.50864863101914E-02  2.69681638219321E-10
 cg2d: Sum(rhs),rhsMax =  -1.51286864915587E-02  2.68929385675934E-10
 cg2d: Sum(rhs),rhsMax =  -1.51737156985096E-02  2.68131317660931E-10
 cg2d: Sum(rhs),rhsMax =  -1.52216077099937E-02  2.67287692500465E-10
 cg2d: Sum(rhs),rhsMax =  -1.52723990093526E-02  2.66398777199462E-10
 cg2d: Sum(rhs),rhsMax =  -1.53261287590282E-02  2.65464847810585E-10
 cg2d: Sum(rhs),rhsMax =  -1.53828389801511E-02  2.64486188966815E-10
 cg2d: Sum(rhs),rhsMax =  -1.54425745657660E-02  2.63463093989891E-10
 cg2d: Sum(rhs),rhsMax =  -1.55053834167356E-02  2.62395864781382E-10
(PID.TID 0000.0001)      cg2d_init_res =   3.64065252683247E-01
(PID.TID 0000.0001)      cg2d_iters(min,last) =      -1     550
(PID.TID 0000.0001)      cg2d_last_res =   9.23885651233089E-08
(PID.TID 0000.0001) // =======================================================
(PID.TID 0000.0001) // Begin MONITOR dynamic field statistics
(PID.TID 0000.0001) // =======================================================
(PID.TID 0000.0001) %MON time_tsnumber                =                  3744
(PID.TID 0000.0001) %MON time_secondsf                =   2.0217600000000E+07
(PID.TID 0000.0001) %MON dynstat_eta_max              =   3.8287632403584E-09
(PID.TID 0000.0001) %MON dynstat_eta_min              =  -2.6979937511808E-09
(PID.TID 0000.0001) %MON dynstat_eta_mean             =   3.9209093298286E-13
(PID.TID 0000.0001) %MON dynstat_eta_sd               =   1.4914959804828E-09
(PID.TID 0000.0001) %MON dynstat_eta_del2             =   1.1975850690590E-14
(PID.TID 0000.0001) %MON dynstat_uvel_max             =   1.4216546865556E-09
(PID.TID 0000.0001) %MON dynstat_uvel_min             =  -1.4376437016218E-09
(PID.TID 0000.0001) %MON dynstat_uvel_mean            =   7.8052013654608E-14
(PID.TID 0000.0001) %MON dynstat_uvel_sd              =   5.8557652666874E-10
(PID.TID 0000.0001) %MON dynstat_uvel_del2            =   4.7954273511740E-14
(PID.TID 0000.0001) %MON dynstat_vvel_max             =   2.2302886577323E-09
(PID.TID 0000.0001) %MON dynstat_vvel_min             =  -3.2055878832097E-09
(PID.TID 0000.0001) %MON dynstat_vvel_mean            =  -2.4868291460774E-15
(PID.TID 0000.0001) %MON dynstat_vvel_sd              =   1.0746196625131E-09
(PID.TID 0000.0001) %MON dynstat_vvel_del2            =   4.9107538863742E-14
(PID.TID 0000.0001) %MON dynstat_wvel_max             =   5.0358536618500E-15
(PID.TID 0000.0001) %MON dynstat_wvel_min             =  -1.0344423823083E-14
(PID.TID 0000.0001) %MON dynstat_wvel_mean            =  -3.1589485487450E-28
(PID.TID 0000.0001) %MON dynstat_wvel_sd              =   3.7380154786271E-15
(PID.TID 0000.0001) %MON dynstat_wvel_del2            =   2.3705384235296E-20
(PID.TID 0000.0001) %MON dynstat_theta_max            =   2.0000000000000E+01
(PID.TID 0000.0001) %MON dynstat_theta_min            =   2.0000000000000E+01
(PID.TID 0000.0001) %MON dynstat_theta_mean           =   2.0000000000000E+01
(PID.TID 0000.0001) %MON dynstat_theta_sd             =   0.0000000000000E+00
(PID.TID 0000.0001) %MON dynstat_theta_del2           =   0.0000000000000E+00
(PID.TID 0000.0001) %MON dynstat_salt_max             =   3.0000000000000E+01
(PID.TID 0000.0001) %MON dynstat_salt_min             =   3.0000000000000E+01
(PID.TID 0000.0001) %MON dynstat_salt_mean            =   3.0000000000000E+01
(PID.TID 0000.0001) %MON dynstat_salt_sd              =   0.0000000000000E+00
(PID.TID 0000.0001) %MON dynstat_salt_del2            =   0.0000000000000E+00
(PID.TID 0000.0001) %MON trAdv_CFL_u_max              =   1.5614101034349E-09
(PID.TID 0000.0001) %MON trAdv_CFL_v_max              =   3.4571860886207E-09
(PID.TID 0000.0001) %MON trAdv_CFL_w_max              =   5.4050665182603E-15
(PID.TID 0000.0001) %MON advcfl_uvel_max              =   1.5526551977515E-09
(PID.TID 0000.0001) %MON advcfl_vvel_max              =   3.4620349138665E-09
(PID.TID 0000.0001) %MON advcfl_wvel_max              =   2.2343955457860E-14
(PID.TID 0000.0001) %MON advcfl_W_hf_max              =   0.0000000000000E+00
(PID.TID 0000.0001) %MON pe_b_mean                    =   2.1822937656745E-21
(PID.TID 0000.0001) %MON ke_max                       =   5.1424922132065E-18
(PID.TID 0000.0001) %MON ke_mean                      =   7.4580952635596E-19
(PID.TID 0000.0001) %MON ke_vol                       =   7.5645000000000E+15
(PID.TID 0000.0001) %MON vort_r_min                   =  -8.0706469383797E-14
(PID.TID 0000.0001) %MON vort_r_max                   =   1.1117625478870E-13
(PID.TID 0000.0001) %MON vort_a_mean                  =   8.2300000000000E-05
(PID.TID 0000.0001) %MON vort_a_sd                    =   7.1297555115553E-06
(PID.TID 0000.0001) %MON vort_p_mean                  =   8.3303658536586E-05
(PID.TID 0000.0001) %MON vort_p_sd                    =   1.7411470229539E-05
(PID.TID 0000.0001) %MON surfExpan_theta_mean         =  -6.2483026624016E-27
(PID.TID 0000.0001) %MON surfExpan_salt_mean          =  -9.3776675376601E-27
(PID.TID 0000.0001) // =======================================================
(PID.TID 0000.0001) // End MONITOR dynamic field statistics
(PID.TID 0000.0001) // =======================================================
 cg2d: Sum(rhs),rhsMax =  -1.55713165282800E-02  2.61284811750677E-10
 cg2d: Sum(rhs),rhsMax =  -1.56404280776226E-02  2.60130253738541E-10
 cg2d: Sum(rhs),rhsMax =  -1.57127755738245E-02  2.58932517939060E-10
 cg2d: Sum(rhs),rhsMax =  -1.57884199417022E-02  2.57691939819904E-10
 cg2d: Sum(rhs),rhsMax =  -1.58668207979343E-02  2.56418638013863E-10
 cg2d: Sum(rhs),rhsMax =  -1.59480333777230E-02  2.55112871949392E-10
 cg2d: Sum(rhs),rhsMax =  -1.60327213460463E-02  2.53765317011977E-10
 cg2d: Sum(rhs),rhsMax =  -1.61209590497164E-02  2.52376339416027E-10
 cg2d: Sum(rhs),rhsMax =  -1.62128249739562E-02  2.50946313216959E-10
 cg2d: Sum(rhs),rhsMax =  -1.63084018709745E-02  2.49475620222183E-10
 cg2d: Sum(rhs),rhsMax =  -1.64077770544511E-02  2.47964649900327E-10
 cg2d: Sum(rhs),rhsMax =  -1.65110424894802E-02  2.46413799218270E-10
 cg2d: Sum(rhs),rhsMax =  -1.66182951301276E-02  2.44823472812024E-10
 cg2d: Sum(rhs),rhsMax =  -1.67296370830558E-02  2.43194082547418E-10
 cg2d: Sum(rhs),rhsMax =  -1.68451759131224E-02  2.41526047578252E-10
 cg2d: Sum(rhs),rhsMax =  -1.69344385622817E-02  2.40252947144919E-10
(PID.TID 0000.0001)      cg2d_init_res =   3.96982960591792E-01
(PID.TID 0000.0001)      cg2d_iters(min,last) =      -1     552
(PID.TID 0000.0001)      cg2d_last_res =   8.93431778134521E-08
(PID.TID 0000.0001) // =======================================================
(PID.TID 0000.0001) // Begin MONITOR dynamic field statistics
(PID.TID 0000.0001) // =======================================================
(PID.TID 0000.0001) %MON time_tsnumber                =                  3760
(PID.TID 0000.0001) %MON time_secondsf                =   2.0304000000000E+07
(PID.TID 0000.0001) %MON dynstat_eta_max              =   3.5651783523462E-09
(PID.TID 0000.0001) %MON dynstat_eta_min              =  -3.1114163371999E-09
(PID.TID 0000.0001) %MON dynstat_eta_mean             =   3.9209095985869E-13
(PID.TID 0000.0001) %MON dynstat_eta_sd               =   1.4700506821445E-09
(PID.TID 0000.0001) %MON dynstat_eta_del2             =   1.1770641759950E-14
(PID.TID 0000.0001) %MON dynstat_uvel_max             =   1.3840800499904E-09
(PID.TID 0000.0001) %MON dynstat_uvel_min             =  -1.3050416031602E-09
(PID.TID 0000.0001) %MON dynstat_uvel_mean            =   1.1068111338641E-13
(PID.TID 0000.0001) %MON dynstat_uvel_sd              =   5.9794103242008E-10
(PID.TID 0000.0001) %MON dynstat_uvel_del2            =   4.7977937963962E-14
(PID.TID 0000.0001) %MON dynstat_vvel_max             =   2.2684736398589E-09
(PID.TID 0000.0001) %MON dynstat_vvel_min             =  -3.2612296643674E-09
(PID.TID 0000.0001) %MON dynstat_vvel_mean            =  -5.3742755499797E-15
(PID.TID 0000.0001) %MON dynstat_vvel_sd              =   1.0587755503075E-09
(PID.TID 0000.0001) %MON dynstat_vvel_del2            =   4.7666714721468E-14
(PID.TID 0000.0001) %MON dynstat_wvel_max             =   5.4886045414149E-15
(PID.TID 0000.0001) %MON dynstat_wvel_min             =  -1.0426324759116E-14
(PID.TID 0000.0001) %MON dynstat_wvel_mean            =  -5.1374456636527E-29
(PID.TID 0000.0001) %MON dynstat_wvel_sd              =   3.7310557010938E-15
(PID.TID 0000.0001) %MON dynstat_wvel_del2            =   2.3558524226729E-20
(PID.TID 0000.0001) %MON dynstat_theta_max            =   2.0000000000000E+01
(PID.TID 0000.0001) %MON dynstat_theta_min            =   2.0000000000000E+01
(PID.TID 0000.0001) %MON dynstat_theta_mean           =   2.0000000000000E+01
(PID.TID 0000.0001) %MON dynstat_theta_sd             =   0.0000000000000E+00
(PID.TID 0000.0001) %MON dynstat_theta_del2           =   0.0000000000000E+00
(PID.TID 0000.0001) %MON dynstat_salt_max             =   3.0000000000000E+01
(PID.TID 0000.0001) %MON dynstat_salt_min             =   3.0000000000000E+01
(PID.TID 0000.0001) %MON dynstat_salt_mean            =   3.0000000000000E+01
(PID.TID 0000.0001) %MON dynstat_salt_sd              =   0.0000000000000E+00
(PID.TID 0000.0001) %MON dynstat_salt_del2            =   0.0000000000000E+00
(PID.TID 0000.0001) %MON trAdv_CFL_u_max              =   1.4947082073576E-09
(PID.TID 0000.0001) %MON trAdv_CFL_v_max              =   3.5194242162586E-09
(PID.TID 0000.0001) %MON trAdv_CFL_w_max              =   5.9000318478830E-15
(PID.TID 0000.0001) %MON advcfl_uvel_max              =   1.4948064539896E-09
(PID.TID 0000.0001) %MON advcfl_vvel_max              =   3.5221280375167E-09
(PID.TID 0000.0001) %MON advcfl_wvel_max              =   2.2520861479691E-14
(PID.TID 0000.0001) %MON advcfl_W_hf_max              =   0.0000000000000E+00
(PID.TID 0000.0001) %MON pe_b_mean                    =   2.1199892277346E-21
(PID.TID 0000.0001) %MON ke_max                       =   5.3239686850697E-18
(PID.TID 0000.0001) %MON ke_mean                      =   7.3626441734277E-19
(PID.TID 0000.0001) %MON ke_vol                       =   7.5645000000000E+15
(PID.TID 0000.0001) %MON vort_r_min                   =  -8.5097228565672E-14
(PID.TID 0000.0001) %MON vort_r_max                   =   1.0468276873608E-13
(PID.TID 0000.0001) %MON vort_a_mean                  =   8.2300000000000E-05
(PID.TID 0000.0001) %MON vort_a_sd                    =   7.1297555115638E-06
(PID.TID 0000.0001) %MON vort_p_mean                  =   8.3303658536585E-05
(PID.TID 0000.0001) %MON vort_p_sd                    =   1.7411470229502E-05
(PID.TID 0000.0001) %MON surfExpan_theta_mean         =  -1.0174920992941E-27
(PID.TID 0000.0001) %MON surfExpan_salt_mean          =  -1.5286030555240E-27
(PID.TID 0000.0001) // =======================================================
(PID.TID 0000.0001) // End MONITOR dynamic field statistics
(PID.TID 0000.0001) // =======================================================
 cg2d: Sum(rhs),rhsMax =  -1.69135204821366E-02  2.40550084861940E-10
 cg2d: Sum(rhs),rhsMax =  -1.68943080042639E-02  2.40823643064846E-10
 cg2d: Sum(rhs),rhsMax =  -1.68773855308823E-02  2.41065110972435E-10
 cg2d: Sum(rhs),rhsMax =  -1.68610064270196E-02  2.41299287233890E-10
 cg2d: Sum(rhs),rhsMax =  -1.68478948805641E-02  2.41487074537635E-10
 cg2d: Sum(rhs),rhsMax =  -1.68343048687349E-02  2.41682023262047E-10
 cg2d: Sum(rhs),rhsMax =  -1.68241653861382E-02  2.41827679511470E-10
 cg2d: Sum(rhs),rhsMax =  -1.68139719653223E-02  2.41974287603170E-10
 cg2d: Sum(rhs),rhsMax =  -1.68065754074941E-02  2.42080781340442E-10
 cg2d: Sum(rhs),rhsMax =  -1.67997747465155E-02  2.42178778329874E-10
 cg2d: Sum(rhs),rhsMax =  -1.67950926202435E-02  2.42246293726439E-10
 cg2d: Sum(rhs),rhsMax =  -1.67914793135840E-02  2.42298422975159E-10
 cg2d: Sum(rhs),rhsMax =  -1.67894885654474E-02  2.42327153345545E-10
 cg2d: Sum(rhs),rhsMax =  -1.67888517399639E-02  2.42336345973389E-10
 cg2d: Sum(rhs),rhsMax =  -1.67895343310817E-02  2.42326494587064E-10
 cg2d: Sum(rhs),rhsMax =  -1.67916588327156E-02  2.42295835977570E-10
(PID.TID 0000.0001)      cg2d_init_res =   3.93392275903859E-01
(PID.TID 0000.0001)      cg2d_iters(min,last) =      -1     552
(PID.TID 0000.0001)      cg2d_last_res =   9.55059162985310E-08
(PID.TID 0000.0001) // =======================================================
(PID.TID 0000.0001) // Begin MONITOR dynamic field statistics
(PID.TID 0000.0001) // =======================================================
(PID.TID 0000.0001) %MON time_tsnumber                =                  3776
(PID.TID 0000.0001) %MON time_secondsf                =   2.0390400000000E+07
(PID.TID 0000.0001) %MON dynstat_eta_max              =   3.3038479206361E-09
(PID.TID 0000.0001) %MON dynstat_eta_min              =  -3.4583232916591E-09
(PID.TID 0000.0001) %MON dynstat_eta_mean             =   3.9209098338528E-13
(PID.TID 0000.0001) %MON dynstat_eta_sd               =   1.4495685544631E-09
(PID.TID 0000.0001) %MON dynstat_eta_del2             =   1.1547642507141E-14
(PID.TID 0000.0001) %MON dynstat_uvel_max             =   1.4297234052628E-09
(PID.TID 0000.0001) %MON dynstat_uvel_min             =  -1.3530445808128E-09
(PID.TID 0000.0001) %MON dynstat_uvel_mean            =   1.3677700934491E-13
(PID.TID 0000.0001) %MON dynstat_uvel_sd              =   6.1321286135467E-10
(PID.TID 0000.0001) %MON dynstat_uvel_del2            =   4.7356868668959E-14
(PID.TID 0000.0001) %MON dynstat_vvel_max             =   2.2661233163437E-09
(PID.TID 0000.0001) %MON dynstat_vvel_min             =  -3.2735386149704E-09
(PID.TID 0000.0001) %MON dynstat_vvel_mean            =  -8.5223143944978E-15
(PID.TID 0000.0001) %MON dynstat_vvel_sd              =   1.0411728263461E-09
(PID.TID 0000.0001) %MON dynstat_vvel_del2            =   4.7113564754211E-14
(PID.TID 0000.0001) %MON dynstat_wvel_max             =   5.8305237746192E-15
(PID.TID 0000.0001) %MON dynstat_wvel_min             =  -1.0335742633427E-14
(PID.TID 0000.0001) %MON dynstat_wvel_mean            =   4.6925429546037E-29
(PID.TID 0000.0001) %MON dynstat_wvel_sd              =   3.7197305776438E-15
(PID.TID 0000.0001) %MON dynstat_wvel_del2            =   2.3490821959696E-20
(PID.TID 0000.0001) %MON dynstat_theta_max            =   2.0000000000000E+01
(PID.TID 0000.0001) %MON dynstat_theta_min            =   2.0000000000000E+01
(PID.TID 0000.0001) %MON dynstat_theta_mean           =   2.0000000000000E+01
(PID.TID 0000.0001) %MON dynstat_theta_sd             =   0.0000000000000E+00
(PID.TID 0000.0001) %MON dynstat_theta_del2           =   0.0000000000000E+00
(PID.TID 0000.0001) %MON dynstat_salt_max             =   3.0000000000000E+01
(PID.TID 0000.0001) %MON dynstat_salt_min             =   3.0000000000000E+01
(PID.TID 0000.0001) %MON dynstat_salt_mean            =   3.0000000000000E+01
(PID.TID 0000.0001) %MON dynstat_salt_sd              =   0.0000000000000E+00
(PID.TID 0000.0001) %MON dynstat_salt_del2            =   0.0000000000000E+00
(PID.TID 0000.0001) %MON trAdv_CFL_u_max              =   1.5373031790205E-09
(PID.TID 0000.0001) %MON trAdv_CFL_v_max              =   3.5362891207035E-09
(PID.TID 0000.0001) %MON trAdv_CFL_w_max              =   6.2783687218126E-15
(PID.TID 0000.0001) %MON advcfl_uvel_max              =   1.5441012776838E-09
(PID.TID 0000.0001) %MON advcfl_vvel_max              =   3.5354217041680E-09
(PID.TID 0000.0001) %MON advcfl_wvel_max              =   2.2325204088203E-14
(PID.TID 0000.0001) %MON advcfl_W_hf_max              =   0.0000000000000E+00
(PID.TID 0000.0001) %MON pe_b_mean                    =   2.0613254140150E-21
(PID.TID 0000.0001) %MON ke_max                       =   5.3675378540435E-18
(PID.TID 0000.0001) %MON ke_mean                      =   7.2706781946357E-19
(PID.TID 0000.0001) %MON ke_vol                       =   7.5645000000000E+15
(PID.TID 0000.0001) %MON vort_r_min                   =  -8.7214994482740E-14
(PID.TID 0000.0001) %MON vort_r_max                   =   9.3985877634914E-14
(PID.TID 0000.0001) %MON vort_a_mean                  =   8.2299999999999E-05
(PID.TID 0000.0001) %MON vort_a_sd                    =   7.1297555115661E-06
(PID.TID 0000.0001) %MON vort_p_mean                  =   8.3303658536585E-05
(PID.TID 0000.0001) %MON vort_p_sd                    =   1.7411470229470E-05
(PID.TID 0000.0001) %MON surfExpan_theta_mean         =   9.4435257629903E-28
(PID.TID 0000.0001) %MON surfExpan_salt_mean          =   1.4350315010813E-27
(PID.TID 0000.0001) // =======================================================
(PID.TID 0000.0001) // End MONITOR dynamic field statistics
(PID.TID 0000.0001) // =======================================================
 cg2d: Sum(rhs),rhsMax =  -1.67950012557735E-02  2.42247616965322E-10
 cg2d: Sum(rhs),rhsMax =  -1.67996687734354E-02  2.42180313306518E-10
 cg2d: Sum(rhs),rhsMax =  -1.68056616806642E-02  2.42093952644355E-10
 cg2d: Sum(rhs),rhsMax =  -1.68126518915831E-02  2.41993298000591E-10
 cg2d: Sum(rhs),rhsMax =  -1.68212896754225E-02  2.41869034559072E-10
 cg2d: Sum(rhs),rhsMax =  -1.68303813994236E-02  2.41738378616805E-10
 cg2d: Sum(rhs),rhsMax =  -1.68416618129379E-02  2.41576465259573E-10
 cg2d: Sum(rhs),rhsMax =  -1.68526341194729E-02  2.41419182160137E-10
 cg2d: Sum(rhs),rhsMax =  -1.68661232908857E-02  2.41226101100610E-10
 cg2d: Sum(rhs),rhsMax =  -1.68791911298466E-02  2.41039345411116E-10
 cg2d: Sum(rhs),rhsMax =  -1.68941385541178E-02  2.40826082203552E-10
 cg2d: Sum(rhs),rhsMax =  -1.69098385402966E-02  2.40602487687401E-10
 cg2d: Sum(rhs),rhsMax =  -1.69260310984086E-02  2.40372312592051E-10
 cg2d: Sum(rhs),rhsMax =  -1.69441707364913E-02  2.40114982375243E-10
 cg2d: Sum(rhs),rhsMax =  -1.69615975479072E-02  2.39868282622716E-10
 cg2d: Sum(rhs),rhsMax =  -1.69805875105018E-02  2.39600030995561E-10
(PID.TID 0000.0001)      cg2d_init_res =   3.97092224203148E-01
(PID.TID 0000.0001)      cg2d_iters(min,last) =      -1     552
(PID.TID 0000.0001)      cg2d_last_res =   9.74818107556996E-08
(PID.TID 0000.0001) // =======================================================
(PID.TID 0000.0001) // Begin MONITOR dynamic field statistics
(PID.TID 0000.0001) // =======================================================
(PID.TID 0000.0001) %MON time_tsnumber                =                  3792
(PID.TID 0000.0001) %MON time_secondsf                =   2.0476800000000E+07
(PID.TID 0000.0001) %MON dynstat_eta_max              =   3.0303527496717E-09
(PID.TID 0000.0001) %MON dynstat_eta_min              =  -3.7365627921183E-09
(PID.TID 0000.0001) %MON dynstat_eta_mean             =   3.9209101077211E-13
(PID.TID 0000.0001) %MON dynstat_eta_sd               =   1.4314154464005E-09
(PID.TID 0000.0001) %MON dynstat_eta_del2             =   1.1319246823864E-14
(PID.TID 0000.0001) %MON dynstat_uvel_max             =   1.5133386850694E-09
(PID.TID 0000.0001) %MON dynstat_uvel_min             =  -1.4046545489460E-09
(PID.TID 0000.0001) %MON dynstat_uvel_mean            =   1.5506465760190E-13
(PID.TID 0000.0001) %MON dynstat_uvel_sd              =   6.2693196671269E-10
(PID.TID 0000.0001) %MON dynstat_uvel_del2            =   4.6111933658630E-14
(PID.TID 0000.0001) %MON dynstat_vvel_max             =   2.2244415750907E-09
(PID.TID 0000.0001) %MON dynstat_vvel_min             =  -3.2383467546402E-09
(PID.TID 0000.0001) %MON dynstat_vvel_mean            =  -1.1809383749277E-14
(PID.TID 0000.0001) %MON dynstat_vvel_sd              =   1.0243098837745E-09
(PID.TID 0000.0001) %MON dynstat_vvel_del2            =   4.7469038660854E-14
(PID.TID 0000.0001) %MON dynstat_wvel_max             =   6.0480731045587E-15
(PID.TID 0000.0001) %MON dynstat_wvel_min             =  -1.0077099517058E-14
(PID.TID 0000.0001) %MON dynstat_wvel_mean            =  -1.8485925813199E-28
(PID.TID 0000.0001) %MON dynstat_wvel_sd              =   3.7006593929344E-15
(PID.TID 0000.0001) %MON dynstat_wvel_del2            =   2.3455943207971E-20
(PID.TID 0000.0001) %MON dynstat_theta_max            =   2.0000000000000E+01
(PID.TID 0000.0001) %MON dynstat_theta_min            =   2.0000000000000E+01
(PID.TID 0000.0001) %MON dynstat_theta_mean           =   2.0000000000000E+01
(PID.TID 0000.0001) %MON dynstat_theta_sd             =   0.0000000000000E+00
(PID.TID 0000.0001) %MON dynstat_theta_del2           =   0.0000000000000E+00
(PID.TID 0000.0001) %MON dynstat_salt_max             =   3.0000000000000E+01
(PID.TID 0000.0001) %MON dynstat_salt_min             =   3.0000000000000E+01
(PID.TID 0000.0001) %MON dynstat_salt_mean            =   3.0000000000000E+01
(PID.TID 0000.0001) %MON dynstat_salt_sd              =   0.0000000000000E+00
(PID.TID 0000.0001) %MON dynstat_salt_del2            =   0.0000000000000E+00
(PID.TID 0000.0001) %MON trAdv_CFL_u_max              =   1.6297715848418E-09
(PID.TID 0000.0001) %MON trAdv_CFL_v_max              =   3.5017327186313E-09
(PID.TID 0000.0001) %MON trAdv_CFL_w_max              =   6.5215069088964E-15
(PID.TID 0000.0001) %MON advcfl_uvel_max              =   1.6344057798750E-09
(PID.TID 0000.0001) %MON advcfl_vvel_max              =   3.4974144950114E-09
(PID.TID 0000.0001) %MON advcfl_wvel_max              =   2.1766534956846E-14
(PID.TID 0000.0001) %MON advcfl_W_hf_max              =   0.0000000000000E+00
(PID.TID 0000.0001) %MON pe_b_mean                    =   2.0100202775847E-21
(PID.TID 0000.0001) %MON ke_max                       =   5.2578533604699E-18
(PID.TID 0000.0001) %MON ke_mean                      =   7.1819581504449E-19
(PID.TID 0000.0001) %MON ke_vol                       =   7.5645000000000E+15
(PID.TID 0000.0001) %MON vort_r_min                   =  -8.7233405706645E-14
(PID.TID 0000.0001) %MON vort_r_max                   =   7.9811802688515E-14
(PID.TID 0000.0001) %MON vort_a_mean                  =   8.2300000000000E-05
(PID.TID 0000.0001) %MON vort_a_sd                    =   7.1297555115665E-06
(PID.TID 0000.0001) %MON vort_p_mean                  =   8.3303658536585E-05
(PID.TID 0000.0001) %MON vort_p_sd                    =   1.7411470229441E-05
(PID.TID 0000.0001) %MON surfExpan_theta_mean         =  -3.7036077517510E-27
(PID.TID 0000.0001) %MON surfExpan_salt_mean          =  -5.5706897415674E-27
(PID.TID 0000.0001) // =======================================================
(PID.TID 0000.0001) // End MONITOR dynamic field statistics
(PID.TID 0000.0001) // =======================================================
 cg2d: Sum(rhs),rhsMax =  -1.70006419306451E-02  2.39317393562114E-10
 cg2d: Sum(rhs),rhsMax =  -1.70202878744804E-02  2.39041158750782E-10
 cg2d: Sum(rhs),rhsMax =  -1.70413729300753E-02  2.38745397518534E-10
 cg2d: Sum(rhs),rhsMax =  -1.70630918165454E-02  2.38441509689891E-10
 cg2d: Sum(rhs),rhsMax =  -1.70844881431454E-02  2.38142890743122E-10
 cg2d: Sum(rhs),rhsMax =  -1.71070458861089E-02  2.37828871316753E-10
 cg2d: Sum(rhs),rhsMax =  -1.71303706382948E-02  2.37505044145035E-10
 cg2d: Sum(rhs),rhsMax =  -1.71529400992377E-02  2.37192541446046E-10
 cg2d: Sum(rhs),rhsMax =  -1.71764458841175E-02  2.36867947491317E-10
 cg2d: Sum(rhs),rhsMax =  -1.72008120414172E-02  2.36532408591252E-10
 cg2d: Sum(rhs),rhsMax =  -1.72245811564256E-02  2.36206006438305E-10
 cg2d: Sum(rhs),rhsMax =  -1.72486230885220E-02  2.35876773006090E-10
 cg2d: Sum(rhs),rhsMax =  -1.72733929913841E-02  2.35538529187803E-10
 cg2d: Sum(rhs),rhsMax =  -1.72985717028414E-02  2.35195695649683E-10
 cg2d: Sum(rhs),rhsMax =  -1.73228627639287E-02  2.34865892772765E-10
 cg2d: Sum(rhs),rhsMax =  -1.73478173173843E-02  2.34528043739400E-10
(PID.TID 0000.0001)      cg2d_init_res =   4.03669789072266E-01
(PID.TID 0000.0001)      cg2d_iters(min,last) =      -1     552
(PID.TID 0000.0001)      cg2d_last_res =   9.67405994991602E-08
(PID.TID 0000.0001) // =======================================================
(PID.TID 0000.0001) // Begin MONITOR dynamic field statistics
(PID.TID 0000.0001) // =======================================================
(PID.TID 0000.0001) %MON time_tsnumber                =                  3808
(PID.TID 0000.0001) %MON time_secondsf                =   2.0563200000000E+07
(PID.TID 0000.0001) %MON dynstat_eta_max              =   2.7392209962073E-09
(PID.TID 0000.0001) %MON dynstat_eta_min              =  -3.9443225076156E-09
(PID.TID 0000.0001) %MON dynstat_eta_mean             =   3.9209104643954E-13
(PID.TID 0000.0001) %MON dynstat_eta_sd               =   1.4164203847143E-09
(PID.TID 0000.0001) %MON dynstat_eta_del2             =   1.1100471040708E-14
(PID.TID 0000.0001) %MON dynstat_uvel_max             =   1.6262014920454E-09
(PID.TID 0000.0001) %MON dynstat_uvel_min             =  -1.4154979828112E-09
(PID.TID 0000.0001) %MON dynstat_uvel_mean            =   1.6470976446136E-13
(PID.TID 0000.0001) %MON dynstat_uvel_sd              =   6.3542467818138E-10
(PID.TID 0000.0001) %MON dynstat_uvel_del2            =   4.4374206833266E-14
(PID.TID 0000.0001) %MON dynstat_vvel_max             =   2.1461056360453E-09
(PID.TID 0000.0001) %MON dynstat_vvel_min             =  -3.1544928551465E-09
(PID.TID 0000.0001) %MON dynstat_vvel_mean            =  -1.5098930846140E-14
(PID.TID 0000.0001) %MON dynstat_vvel_sd              =   1.0105556435980E-09
(PID.TID 0000.0001) %MON dynstat_vvel_del2            =   4.8551452012586E-14
(PID.TID 0000.0001) %MON dynstat_wvel_max             =   6.1347095969833E-15
(PID.TID 0000.0001) %MON dynstat_wvel_min             =  -9.6609651067947E-15
(PID.TID 0000.0001) %MON dynstat_wvel_mean            =  -5.7185870577482E-29
(PID.TID 0000.0001) %MON dynstat_wvel_sd              =   3.6720686260960E-15
(PID.TID 0000.0001) %MON dynstat_wvel_del2            =   2.3407158236842E-20
(PID.TID 0000.0001) %MON dynstat_theta_max            =   2.0000000000000E+01
(PID.TID 0000.0001) %MON dynstat_theta_min            =   2.0000000000000E+01
(PID.TID 0000.0001) %MON dynstat_theta_mean           =   2.0000000000000E+01
(PID.TID 0000.0001) %MON dynstat_theta_sd             =   0.0000000000000E+00
(PID.TID 0000.0001) %MON dynstat_theta_del2           =   0.0000000000000E+00
(PID.TID 0000.0001) %MON dynstat_salt_max             =   3.0000000000000E+01
(PID.TID 0000.0001) %MON dynstat_salt_min             =   3.0000000000000E+01
(PID.TID 0000.0001) %MON dynstat_salt_mean            =   3.0000000000000E+01
(PID.TID 0000.0001) %MON dynstat_salt_sd              =   0.0000000000000E+00
(PID.TID 0000.0001) %MON dynstat_salt_del2            =   0.0000000000000E+00
(PID.TID 0000.0001) %MON trAdv_CFL_u_max              =   1.7483654125843E-09
(PID.TID 0000.0001) %MON trAdv_CFL_v_max              =   3.4144017596802E-09
(PID.TID 0000.0001) %MON trAdv_CFL_w_max              =   6.6238178840883E-15
(PID.TID 0000.0001) %MON advcfl_uvel_max              =   1.7562976114090E-09
(PID.TID 0000.0001) %MON advcfl_vvel_max              =   3.4068522835583E-09
(PID.TID 0000.0001) %MON advcfl_wvel_max              =   2.0867684630677E-14
(PID.TID 0000.0001) %MON advcfl_W_hf_max              =   0.0000000000000E+00
(PID.TID 0000.0001) %MON pe_b_mean                    =   1.9681281696302E-21
(PID.TID 0000.0001) %MON ke_max                       =   4.9965828533627E-18
(PID.TID 0000.0001) %MON ke_mean                      =   7.0959731333885E-19
(PID.TID 0000.0001) %MON ke_vol                       =   7.5645000000000E+15
(PID.TID 0000.0001) %MON vort_r_min                   =  -8.5746449520168E-14
(PID.TID 0000.0001) %MON vort_r_max                   =   6.3421328587263E-14
(PID.TID 0000.0001) %MON vort_a_mean                  =   8.2300000000001E-05
(PID.TID 0000.0001) %MON vort_a_sd                    =   7.1297555115529E-06
(PID.TID 0000.0001) %MON vort_p_mean                  =   8.3303658536586E-05
(PID.TID 0000.0001) %MON vort_p_sd                    =   1.7411470229416E-05
(PID.TID 0000.0001) %MON surfExpan_theta_mean         =  -1.1249458625315E-27
(PID.TID 0000.0001) %MON surfExpan_salt_mean          =  -1.6839814491084E-27
(PID.TID 0000.0001) // =======================================================
(PID.TID 0000.0001) // End MONITOR dynamic field statistics
(PID.TID 0000.0001) // =======================================================
 cg2d: Sum(rhs),rhsMax =  -1.73734453542089E-02  2.34182086643642E-10
 cg2d: Sum(rhs),rhsMax =  -1.73987044341842E-02  2.33842107756641E-10
 cg2d: Sum(rhs),rhsMax =  -1.74237622121287E-02  2.33505812400044E-10
 cg2d: Sum(rhs),rhsMax =  -1.74495375094699E-02  2.33160895086797E-10
 cg2d: Sum(rhs),rhsMax =  -1.74759563964852E-02  2.32808421391366E-10
 cg2d: Sum(rhs),rhsMax =  -1.75011793808610E-02  2.32472896351252E-10
 cg2d: Sum(rhs),rhsMax =  -1.75272387050714E-02  2.32127260349775E-10
 cg2d: Sum(rhs),rhsMax =  -1.75542384031483E-02  2.31770234415570E-10
 cg2d: Sum(rhs),rhsMax =  -1.75803047999288E-02  2.31426590609994E-10
 cg2d: Sum(rhs),rhsMax =  -1.76069342480730E-02  2.31076574705032E-10
 cg2d: Sum(rhs),rhsMax =  -1.76347380131593E-02  2.30712252056078E-10
 cg2d: Sum(rhs),rhsMax =  -1.76616672584311E-02  2.30360482474709E-10
 cg2d: Sum(rhs),rhsMax =  -1.76893059847366E-02  2.30000559589448E-10
 cg2d: Sum(rhs),rhsMax =  -1.77184316953705E-02  2.29622488140176E-10
 cg2d: Sum(rhs),rhsMax =  -1.77460975491774E-02  2.29264517130983E-10
 cg2d: Sum(rhs),rhsMax =  -1.77753422039450E-02  2.28887331018987E-10
(PID.TID 0000.0001)      cg2d_init_res =   4.09714312276798E-01
(PID.TID 0000.0001)      cg2d_iters(min,last) =      -1     552
(PID.TID 0000.0001)      cg2d_last_res =   9.95948117033531E-08
(PID.TID 0000.0001) // =======================================================
(PID.TID 0000.0001) // Begin MONITOR dynamic field statistics
(PID.TID 0000.0001) // =======================================================
(PID.TID 0000.0001) %MON time_tsnumber                =                  3824
(PID.TID 0000.0001) %MON time_secondsf                =   2.0649600000000E+07
(PID.TID 0000.0001) %MON dynstat_eta_max              =   2.4321438978270E-09
(PID.TID 0000.0001) %MON dynstat_eta_min              =  -4.0845550245090E-09
(PID.TID 0000.0001) %MON dynstat_eta_mean             =   3.9209115880210E-13
(PID.TID 0000.0001) %MON dynstat_eta_sd               =   1.4046986374724E-09
(PID.TID 0000.0001) %MON dynstat_eta_del2             =   1.0906226391842E-14
(PID.TID 0000.0001) %MON dynstat_uvel_max             =   1.7243531505285E-09
(PID.TID 0000.0001) %MON dynstat_uvel_min             =  -1.4471641251999E-09
(PID.TID 0000.0001) %MON dynstat_uvel_mean            =   1.6535807243662E-13
(PID.TID 0000.0001) %MON dynstat_uvel_sd              =   6.3629067063894E-10
(PID.TID 0000.0001) %MON dynstat_uvel_del2            =   4.2372254548317E-14
(PID.TID 0000.0001) %MON dynstat_vvel_max             =   2.1444636774539E-09
(PID.TID 0000.0001) %MON dynstat_vvel_min             =  -3.0233787866877E-09
(PID.TID 0000.0001) %MON dynstat_vvel_mean            =  -1.8246776222171E-14
(PID.TID 0000.0001) %MON dynstat_vvel_sd              =   1.0016292104142E-09
(PID.TID 0000.0001) %MON dynstat_vvel_del2            =   5.0043253623917E-14
(PID.TID 0000.0001) %MON dynstat_wvel_max             =   6.1147380879534E-15
(PID.TID 0000.0001) %MON dynstat_wvel_min             =  -9.1020973636002E-15
(PID.TID 0000.0001) %MON dynstat_wvel_mean            =  -1.8993440857306E-29
(PID.TID 0000.0001) %MON dynstat_wvel_sd              =   3.6341268835613E-15
(PID.TID 0000.0001) %MON dynstat_wvel_del2            =   2.3304093838095E-20
(PID.TID 0000.0001) %MON dynstat_theta_max            =   2.0000000000000E+01
(PID.TID 0000.0001) %MON dynstat_theta_min            =   2.0000000000000E+01
(PID.TID 0000.0001) %MON dynstat_theta_mean           =   2.0000000000000E+01
(PID.TID 0000.0001) %MON dynstat_theta_sd             =   0.0000000000000E+00
(PID.TID 0000.0001) %MON dynstat_theta_del2           =   0.0000000000000E+00
(PID.TID 0000.0001) %MON dynstat_salt_max             =   3.0000000000000E+01
(PID.TID 0000.0001) %MON dynstat_salt_min             =   3.0000000000000E+01
(PID.TID 0000.0001) %MON dynstat_salt_mean            =   3.0000000000000E+01
(PID.TID 0000.0001) %MON dynstat_salt_sd              =   0.0000000000000E+00
(PID.TID 0000.0001) %MON dynstat_salt_del2            =   0.0000000000000E+00
(PID.TID 0000.0001) %MON trAdv_CFL_u_max              =   1.8567147321054E-09
(PID.TID 0000.0001) %MON trAdv_CFL_v_max              =   3.2757577930278E-09
(PID.TID 0000.0001) %MON trAdv_CFL_w_max              =   6.6066532906417E-15
(PID.TID 0000.0001) %MON advcfl_uvel_max              =   1.8623014025707E-09
(PID.TID 0000.0001) %MON advcfl_vvel_max              =   3.2652490896227E-09
(PID.TID 0000.0001) %MON advcfl_wvel_max              =   1.9660530305377E-14
(PID.TID 0000.0001) %MON advcfl_W_hf_max              =   0.0000000000000E+00
(PID.TID 0000.0001) %MON pe_b_mean                    =   1.9356880259512E-21
(PID.TID 0000.0001) %MON ke_max                       =   4.5998473177746E-18
(PID.TID 0000.0001) %MON ke_mean                      =   7.0120141360052E-19
(PID.TID 0000.0001) %MON ke_vol                       =   7.5645000000000E+15
(PID.TID 0000.0001) %MON vort_r_min                   =  -8.4210250928190E-14
(PID.TID 0000.0001) %MON vort_r_max                   =   7.2198216607291E-14
(PID.TID 0000.0001) %MON vort_a_mean                  =   8.2299999999999E-05
(PID.TID 0000.0001) %MON vort_a_sd                    =   7.1297555115769E-06
(PID.TID 0000.0001) %MON vort_p_mean                  =   8.3303658536584E-05
(PID.TID 0000.0001) %MON vort_p_sd                    =   1.7411470229415E-05
(PID.TID 0000.0001) %MON surfExpan_theta_mean         =  -3.7407962436907E-28
(PID.TID 0000.0001) %MON surfExpan_salt_mean          =  -5.7625786200195E-28
(PID.TID 0000.0001) // =======================================================
(PID.TID 0000.0001) // End MONITOR dynamic field statistics
(PID.TID 0000.0001) // =======================================================
 cg2d: Sum(rhs),rhsMax =  -1.78052231090862E-02  2.28503222134245E-10
 cg2d: Sum(rhs),rhsMax =  -1.78347405449905E-02  2.28125058398554E-10
 cg2d: Sum(rhs),rhsMax =  -1.78663548013486E-02  2.27721457447625E-10
 cg2d: Sum(rhs),rhsMax =  -1.78967739612638E-02  2.27334362032869E-10
 cg2d: Sum(rhs),rhsMax =  -1.79290623456451E-02  2.26924941878070E-10
 cg2d: Sum(rhs),rhsMax =  -1.79616090143996E-02  2.26513741761110E-10
 cg2d: Sum(rhs),rhsMax =  -1.79947956679930E-02  2.26095990226245E-10
 cg2d: Sum(rhs),rhsMax =  -1.80294421733747E-02  2.25661504678634E-10
 cg2d: Sum(rhs),rhsMax =  -1.80637670022176E-02  2.25232697461866E-10
 cg2d: Sum(rhs),rhsMax =  -1.81004874156076E-02  2.24775764679032E-10
 cg2d: Sum(rhs),rhsMax =  -1.81362146568610E-02  2.24332966573823E-10
 cg2d: Sum(rhs),rhsMax =  -1.81749834172235E-02  2.23854442398622E-10
 cg2d: Sum(rhs),rhsMax =  -1.82124025296766E-02  2.23394509342021E-10
 cg2d: Sum(rhs),rhsMax =  -1.82531946757930E-02  2.22895265943154E-10
 cg2d: Sum(rhs),rhsMax =  -1.82926215248529E-02  2.22414848137194E-10
 cg2d: Sum(rhs),rhsMax =  -1.83354128429871E-02  2.21895772629213E-10
(PID.TID 0000.0001)      cg2d_init_res =   4.16477488775847E-01
(PID.TID 0000.0001)      cg2d_iters(min,last) =      -1     553
(PID.TID 0000.0001)      cg2d_last_res =   8.46415558421794E-08
(PID.TID 0000.0001) // =======================================================
(PID.TID 0000.0001) // Begin MONITOR dynamic field statistics
(PID.TID 0000.0001) // =======================================================
(PID.TID 0000.0001) %MON time_tsnumber                =                  3840
(PID.TID 0000.0001) %MON time_secondsf                =   2.0736000000000E+07
(PID.TID 0000.0001) %MON dynstat_eta_max              =   2.1114220059820E-09
(PID.TID 0000.0001) %MON dynstat_eta_min              =  -4.1601487519024E-09
(PID.TID 0000.0001) %MON dynstat_eta_mean             =   3.9209113063492E-13
(PID.TID 0000.0001) %MON dynstat_eta_sd               =   1.3956399091867E-09
(PID.TID 0000.0001) %MON dynstat_eta_del2             =   1.0748353385782E-14
(PID.TID 0000.0001) %MON dynstat_uvel_max             =   1.7917368621766E-09
(PID.TID 0000.0001) %MON dynstat_uvel_min             =  -1.4754660560064E-09
(PID.TID 0000.0001) %MON dynstat_uvel_mean            =   1.5714802831435E-13
(PID.TID 0000.0001) %MON dynstat_uvel_sd              =   6.2857449963447E-10
(PID.TID 0000.0001) %MON dynstat_uvel_del2            =   4.0406203625545E-14
(PID.TID 0000.0001) %MON dynstat_vvel_max             =   2.3712938886500E-09
(PID.TID 0000.0001) %MON dynstat_vvel_min             =  -2.8491665405732E-09
(PID.TID 0000.0001) %MON dynstat_vvel_mean            =  -2.1108932014144E-14
(PID.TID 0000.0001) %MON dynstat_vvel_sd              =   9.9820213613941E-10
(PID.TID 0000.0001) %MON dynstat_vvel_del2            =   5.1587390594671E-14
(PID.TID 0000.0001) %MON dynstat_wvel_max             =   6.8765586050401E-15
(PID.TID 0000.0001) %MON dynstat_wvel_min             =  -8.4254215632074E-15
(PID.TID 0000.0001) %MON dynstat_wvel_mean            =  -1.8932094105589E-28
(PID.TID 0000.0001) %MON dynstat_wvel_sd              =   3.5889170801838E-15
(PID.TID 0000.0001) %MON dynstat_wvel_del2            =   2.3106274937308E-20
(PID.TID 0000.0001) %MON dynstat_theta_max            =   2.0000000000000E+01
(PID.TID 0000.0001) %MON dynstat_theta_min            =   2.0000000000000E+01
(PID.TID 0000.0001) %MON dynstat_theta_mean           =   2.0000000000000E+01
(PID.TID 0000.0001) %MON dynstat_theta_sd             =   0.0000000000000E+00
(PID.TID 0000.0001) %MON dynstat_theta_del2           =   0.0000000000000E+00
(PID.TID 0000.0001) %MON dynstat_salt_max             =   3.0000000000000E+01
(PID.TID 0000.0001) %MON dynstat_salt_min             =   3.0000000000000E+01
(PID.TID 0000.0001) %MON dynstat_salt_mean            =   3.0000000000000E+01
(PID.TID 0000.0001) %MON dynstat_salt_sd              =   0.0000000000000E+00
(PID.TID 0000.0001) %MON dynstat_salt_del2            =   0.0000000000000E+00
(PID.TID 0000.0001) %MON trAdv_CFL_u_max              =   1.9312901365435E-09
(PID.TID 0000.0001) %MON trAdv_CFL_v_max              =   3.0901923214333E-09
(PID.TID 0000.0001) %MON trAdv_CFL_w_max              =   7.3719249450876E-15
(PID.TID 0000.0001) %MON advcfl_uvel_max              =   1.9350758111508E-09
(PID.TID 0000.0001) %MON advcfl_vvel_max              =   3.0770998638191E-09
(PID.TID 0000.0001) %MON advcfl_wvel_max              =   1.8198910576528E-14
(PID.TID 0000.0001) %MON advcfl_W_hf_max              =   0.0000000000000E+00
(PID.TID 0000.0001) %MON pe_b_mean                    =   1.9108025025629E-21
(PID.TID 0000.0001) %MON ke_max                       =   4.0973880347817E-18
(PID.TID 0000.0001) %MON ke_mean                      =   6.9292843633059E-19
(PID.TID 0000.0001) %MON ke_vol                       =   7.5645000000000E+15
(PID.TID 0000.0001) %MON vort_r_min                   =  -8.6234021940300E-14
(PID.TID 0000.0001) %MON vort_r_max                   =   7.8134432551963E-14
(PID.TID 0000.0001) %MON vort_a_mean                  =   8.2300000000000E-05
(PID.TID 0000.0001) %MON vort_a_sd                    =   7.1297555115683E-06
(PID.TID 0000.0001) %MON vort_p_mean                  =   8.3303658536585E-05
(PID.TID 0000.0001) %MON vort_p_sd                    =   1.7411470229408E-05
(PID.TID 0000.0001) %MON surfExpan_theta_mean         =  -3.7525535917588E-27
(PID.TID 0000.0001) %MON surfExpan_salt_mean          =  -5.6348535090915E-27
(PID.TID 0000.0001) // =======================================================
(PID.TID 0000.0001) // End MONITOR dynamic field statistics
(PID.TID 0000.0001) // =======================================================
 cg2d: Sum(rhs),rhsMax =  -1.83771910196490E-02  2.21391319002930E-10
 cg2d: Sum(rhs),rhsMax =  -1.84219583733278E-02  2.20853312009143E-10
 cg2d: Sum(rhs),rhsMax =  -1.84664606317156E-02  2.20321076424304E-10
 cg2d: Sum(rhs),rhsMax =  -1.85131823334704E-02  2.19765050580060E-10
 cg2d: Sum(rhs),rhsMax =  -1.85608120604005E-02  2.19201099943185E-10
 cg2d: Sum(rhs),rhsMax =  -1.86094680991559E-02  2.18627978340489E-10
 cg2d: Sum(rhs),rhsMax =  -1.86606608754126E-02  2.18028202957691E-10
 cg2d: Sum(rhs),rhsMax =  -1.87112333595333E-02  2.17438917531018E-10
 cg2d: Sum(rhs),rhsMax =  -1.87658011686085E-02  2.16806640093042E-10
 cg2d: Sum(rhs),rhsMax =  -1.88189321842651E-02  2.16194533901676E-10
 cg2d: Sum(rhs),rhsMax =  -1.88754234458613E-02  2.15547495398899E-10
 cg2d: Sum(rhs),rhsMax =  -1.89330571662537E-02  2.14891350571521E-10
 cg2d: Sum(rhs),rhsMax =  -1.89914604456950E-02  2.14230506990991E-10
 cg2d: Sum(rhs),rhsMax =  -1.90539552015487E-02  2.13527854389587E-10
 cg2d: Sum(rhs),rhsMax =  -1.91144489963794E-02  2.12852075647359E-10
 cg2d: Sum(rhs),rhsMax =  -1.91788742132498E-02  2.12137066713095E-10
(PID.TID 0000.0001)      cg2d_init_res =   4.27149127732359E-01
(PID.TID 0000.0001)      cg2d_iters(min,last) =      -1     553
(PID.TID 0000.0001)      cg2d_last_res =   8.45683773301613E-08
(PID.TID 0000.0001) // =======================================================
(PID.TID 0000.0001) // Begin MONITOR dynamic field statistics
(PID.TID 0000.0001) // =======================================================
(PID.TID 0000.0001) %MON time_tsnumber                =                  3856
(PID.TID 0000.0001) %MON time_secondsf                =   2.0822400000000E+07
(PID.TID 0000.0001) %MON dynstat_eta_max              =   2.0093974086119E-09
(PID.TID 0000.0001) %MON dynstat_eta_min              =  -4.1712520774012E-09
(PID.TID 0000.0001) %MON dynstat_eta_mean             =   3.9209108590639E-13
(PID.TID 0000.0001) %MON dynstat_eta_sd               =   1.3880673032855E-09
(PID.TID 0000.0001) %MON dynstat_eta_del2             =   1.0633072481830E-14
(PID.TID 0000.0001) %MON dynstat_uvel_max             =   1.8423830367577E-09
(PID.TID 0000.0001) %MON dynstat_uvel_min             =  -1.4687037275170E-09
(PID.TID 0000.0001) %MON dynstat_uvel_mean            =   1.4069645355142E-13
(PID.TID 0000.0001) %MON dynstat_uvel_sd              =   6.1276086534210E-10
(PID.TID 0000.0001) %MON dynstat_uvel_del2            =   3.8799189237521E-14
(PID.TID 0000.0001) %MON dynstat_vvel_max             =   2.5635724308891E-09
(PID.TID 0000.0001) %MON dynstat_vvel_min             =  -2.6378775541955E-09
(PID.TID 0000.0001) %MON dynstat_vvel_mean            =  -2.3549449294270E-14
(PID.TID 0000.0001) %MON dynstat_vvel_sd              =   9.9975924140010E-10
(PID.TID 0000.0001) %MON dynstat_vvel_del2            =   5.2864946265220E-14
(PID.TID 0000.0001) %MON dynstat_wvel_max             =   7.6518512903689E-15
(PID.TID 0000.0001) %MON dynstat_wvel_min             =  -7.6628210779472E-15
(PID.TID 0000.0001) %MON dynstat_wvel_mean            =   9.6753541848678E-29
(PID.TID 0000.0001) %MON dynstat_wvel_sd              =   3.5400508912482E-15
(PID.TID 0000.0001) %MON dynstat_wvel_del2            =   2.2812464237838E-20
(PID.TID 0000.0001) %MON dynstat_theta_max            =   2.0000000000000E+01
(PID.TID 0000.0001) %MON dynstat_theta_min            =   2.0000000000000E+01
(PID.TID 0000.0001) %MON dynstat_theta_mean           =   2.0000000000000E+01
(PID.TID 0000.0001) %MON dynstat_theta_sd             =   0.0000000000000E+00
(PID.TID 0000.0001) %MON dynstat_theta_del2           =   0.0000000000000E+00
(PID.TID 0000.0001) %MON dynstat_salt_max             =   3.0000000000000E+01
(PID.TID 0000.0001) %MON dynstat_salt_min             =   3.0000000000000E+01
(PID.TID 0000.0001) %MON dynstat_salt_mean            =   3.0000000000000E+01
(PID.TID 0000.0001) %MON dynstat_salt_sd              =   0.0000000000000E+00
(PID.TID 0000.0001) %MON dynstat_salt_del2            =   0.0000000000000E+00
(PID.TID 0000.0001) %MON trAdv_CFL_u_max              =   1.9862246746161E-09
(PID.TID 0000.0001) %MON trAdv_CFL_v_max              =   2.8641820164987E-09
(PID.TID 0000.0001) %MON trAdv_CFL_w_max              =   8.2146419149942E-15
(PID.TID 0000.0001) %MON advcfl_uvel_max              =   1.9897736796983E-09
(PID.TID 0000.0001) %MON advcfl_vvel_max              =   2.8489077585312E-09
(PID.TID 0000.0001) %MON advcfl_wvel_max              =   1.6551693528366E-14
(PID.TID 0000.0001) %MON advcfl_W_hf_max              =   0.0000000000000E+00
(PID.TID 0000.0001) %MON pe_b_mean                    =   1.8901231033342E-21
(PID.TID 0000.0001) %MON ke_max                       =   3.5303094960708E-18
(PID.TID 0000.0001) %MON ke_mean                      =   6.8470251546015E-19
(PID.TID 0000.0001) %MON ke_vol                       =   7.5645000000000E+15
(PID.TID 0000.0001) %MON vort_r_min                   =  -8.6914371199143E-14
(PID.TID 0000.0001) %MON vort_r_max                   =   8.0770404290288E-14
(PID.TID 0000.0001) %MON vort_a_mean                  =   8.2300000000000E-05
(PID.TID 0000.0001) %MON vort_a_sd                    =   7.1297555115556E-06
(PID.TID 0000.0001) %MON vort_p_mean                  =   8.3303658536585E-05
(PID.TID 0000.0001) %MON vort_p_sd                    =   1.7411470229409E-05
(PID.TID 0000.0001) %MON surfExpan_theta_mean         =   1.9846045219898E-27
(PID.TID 0000.0001) %MON surfExpan_salt_mean          =   3.0057223634787E-27
(PID.TID 0000.0001) // =======================================================
(PID.TID 0000.0001) // End MONITOR dynamic field statistics
(PID.TID 0000.0001) // =======================================================
 cg2d: Sum(rhs),rhsMax =  -1.92449698254944E-02  2.11408494385609E-10
 cg2d: Sum(rhs),rhsMax =  -1.93113228563185E-02  2.10682101012451E-10
 cg2d: Sum(rhs),rhsMax =  -1.93818794128021E-02  2.09915146012816E-10
 cg2d: Sum(rhs),rhsMax =  -1.94519328156254E-02  2.09159164983310E-10
 cg2d: Sum(rhs),rhsMax =  -1.95244500280443E-02  2.08382310243382E-10
 cg2d: Sum(rhs),rhsMax =  -1.96012658267014E-02  2.07565675363747E-10
 cg2d: Sum(rhs),rhsMax =  -1.96758724462774E-02  2.06778630450089E-10
 cg2d: Sum(rhs),rhsMax =  -1.97546919311934E-02  2.05953600751513E-10
 cg2d: Sum(rhs),rhsMax =  -1.98165320557115E-02  2.05310894067842E-10
 cg2d: Sum(rhs),rhsMax =  -1.95909758429862E-02  2.07674692878783E-10
 cg2d: Sum(rhs),rhsMax =  -1.93729897707593E-02  2.10011460131059E-10
 cg2d: Sum(rhs),rhsMax =  -1.91622797869800E-02  2.12320761994398E-10
 cg2d: Sum(rhs),rhsMax =  -1.89585679049145E-02  2.14602170479643E-10
 cg2d: Sum(rhs),rhsMax =  -1.87615911722738E-02  2.16855263573735E-10
 cg2d: Sum(rhs),rhsMax =  -1.85711006631541E-02  2.19079625304041E-10
 cg2d: Sum(rhs),rhsMax =  -1.83867849045903E-02  2.21275756935306E-10
(PID.TID 0000.0001)      cg2d_init_res =   3.99894133993639E-01
(PID.TID 0000.0001)      cg2d_iters(min,last) =      -1     551
(PID.TID 0000.0001)      cg2d_last_res =   9.68781724729555E-08
(PID.TID 0000.0001) // =======================================================
(PID.TID 0000.0001) // Begin MONITOR dynamic field statistics
(PID.TID 0000.0001) // =======================================================
(PID.TID 0000.0001) %MON time_tsnumber                =                  3872
(PID.TID 0000.0001) %MON time_secondsf                =   2.0908800000000E+07
(PID.TID 0000.0001) %MON dynstat_eta_max              =   2.1052580037980E-09
(PID.TID 0000.0001) %MON dynstat_eta_min              =  -4.1161956533204E-09
(PID.TID 0000.0001) %MON dynstat_eta_mean             =   3.9209105015268E-13
(PID.TID 0000.0001) %MON dynstat_eta_sd               =   1.3805223604874E-09
(PID.TID 0000.0001) %MON dynstat_eta_del2             =   1.0559542551407E-14
(PID.TID 0000.0001) %MON dynstat_uvel_max             =   1.8887121959435E-09
(PID.TID 0000.0001) %MON dynstat_uvel_min             =  -1.4281154102901E-09
(PID.TID 0000.0001) %MON dynstat_uvel_mean            =   1.1705830695883E-13
(PID.TID 0000.0001) %MON dynstat_uvel_sd              =   5.9066407204275E-10
(PID.TID 0000.0001) %MON dynstat_uvel_del2            =   3.7821315959246E-14
(PID.TID 0000.0001) %MON dynstat_vvel_max             =   2.7192427590140E-09
(PID.TID 0000.0001) %MON dynstat_vvel_min             =  -2.3985284848058E-09
(PID.TID 0000.0001) %MON dynstat_vvel_mean            =  -2.5447859844645E-14
(PID.TID 0000.0001) %MON dynstat_vvel_sd              =   1.0047710949062E-09
(PID.TID 0000.0001) %MON dynstat_vvel_del2            =   5.3637772475386E-14
(PID.TID 0000.0001) %MON dynstat_wvel_max             =   8.3131309547291E-15
(PID.TID 0000.0001) %MON dynstat_wvel_min             =  -6.8514036596912E-15
(PID.TID 0000.0001) %MON dynstat_wvel_mean            =   4.9006318014675E-29
(PID.TID 0000.0001) %MON dynstat_wvel_sd              =   3.4919708949018E-15
(PID.TID 0000.0001) %MON dynstat_wvel_del2            =   2.2423806784424E-20
(PID.TID 0000.0001) %MON dynstat_theta_max            =   2.0000000000000E+01
(PID.TID 0000.0001) %MON dynstat_theta_min            =   2.0000000000000E+01
(PID.TID 0000.0001) %MON dynstat_theta_mean           =   2.0000000000000E+01
(PID.TID 0000.0001) %MON dynstat_theta_sd             =   0.0000000000000E+00
(PID.TID 0000.0001) %MON dynstat_theta_del2           =   0.0000000000000E+00
(PID.TID 0000.0001) %MON dynstat_salt_max             =   3.0000000000000E+01
(PID.TID 0000.0001) %MON dynstat_salt_min             =   3.0000000000000E+01
(PID.TID 0000.0001) %MON dynstat_salt_mean            =   3.0000000000000E+01
(PID.TID 0000.0001) %MON dynstat_salt_sd              =   0.0000000000000E+00
(PID.TID 0000.0001) %MON dynstat_salt_del2            =   0.0000000000000E+00
(PID.TID 0000.0001) %MON trAdv_CFL_u_max              =   2.0374696981765E-09
(PID.TID 0000.0001) %MON trAdv_CFL_v_max              =   2.9270563441938E-09
(PID.TID 0000.0001) %MON trAdv_CFL_w_max              =   8.9371014906581E-15
(PID.TID 0000.0001) %MON advcfl_uvel_max              =   2.0398091716189E-09
(PID.TID 0000.0001) %MON advcfl_vvel_max              =   2.9367821797351E-09
(PID.TID 0000.0001) %MON advcfl_wvel_max              =   1.7956362862215E-14
(PID.TID 0000.0001) %MON advcfl_W_hf_max              =   0.0000000000000E+00
(PID.TID 0000.0001) %MON pe_b_mean                    =   1.8696311408519E-21
(PID.TID 0000.0001) %MON ke_max                       =   3.7131378459316E-18
(PID.TID 0000.0001) %MON ke_mean                      =   6.7646343152495E-19
(PID.TID 0000.0001) %MON ke_vol                       =   7.5645000000000E+15
(PID.TID 0000.0001) %MON vort_r_min                   =  -8.7024105777131E-14
(PID.TID 0000.0001) %MON vort_r_max                   =   7.9901059550742E-14
(PID.TID 0000.0001) %MON vort_a_mean                  =   8.2300000000001E-05
(PID.TID 0000.0001) %MON vort_a_sd                    =   7.1297555115508E-06
(PID.TID 0000.0001) %MON vort_p_mean                  =   8.3303658536586E-05
(PID.TID 0000.0001) %MON vort_p_sd                    =   1.7411470229422E-05
(PID.TID 0000.0001) %MON surfExpan_theta_mean         =   1.0126491916375E-27
(PID.TID 0000.0001) %MON surfExpan_salt_mean          =   1.5500512577690E-27
(PID.TID 0000.0001) // =======================================================
(PID.TID 0000.0001) // End MONITOR dynamic field statistics
(PID.TID 0000.0001) // =======================================================
 cg2d: Sum(rhs),rhsMax =  -1.82081031779627E-02  2.23447202810095E-10
 cg2d: Sum(rhs),rhsMax =  -1.80352602432791E-02  2.25588632714589E-10
 cg2d: Sum(rhs),rhsMax =  -1.78680538831569E-02  2.27699653303751E-10
 cg2d: Sum(rhs),rhsMax =  -1.77062921755105E-02  2.29779877706059E-10
 cg2d: Sum(rhs),rhsMax =  -1.75497928686530E-02  2.31828925544224E-10
 cg2d: Sum(rhs),rhsMax =  -1.73983828487873E-02  2.33846423104035E-10
 cg2d: Sum(rhs),rhsMax =  -1.72518976018827E-02  2.35832003283449E-10
 cg2d: Sum(rhs),rhsMax =  -1.71101806786297E-02  2.37785305718330E-10
 cg2d: Sum(rhs),rhsMax =  -1.69730833136529E-02  2.39705976860127E-10
 cg2d: Sum(rhs),rhsMax =  -1.68404639511438E-02  2.41593670020923E-10
 cg2d: Sum(rhs),rhsMax =  -1.67121878483142E-02  2.43448045444510E-10
 cg2d: Sum(rhs),rhsMax =  -1.65881267086699E-02  2.45268770366881E-10
 cg2d: Sum(rhs),rhsMax =  -1.64681583728244E-02  2.47055519077001E-10
 cg2d: Sum(rhs),rhsMax =  -1.63521664650671E-02  2.48807972975523E-10
 cg2d: Sum(rhs),rhsMax =  -1.62400400766597E-02  2.50525820632327E-10
 cg2d: Sum(rhs),rhsMax =  -1.61316735065614E-02  2.52208757956298E-10
(PID.TID 0000.0001)      cg2d_init_res =   3.41786677199471E-01
(PID.TID 0000.0001)      cg2d_iters(min,last) =      -1     549
(PID.TID 0000.0001)      cg2d_last_res =   9.84402484169729E-08
(PID.TID 0000.0001) // =======================================================
(PID.TID 0000.0001) // Begin MONITOR dynamic field statistics
(PID.TID 0000.0001) // =======================================================
(PID.TID 0000.0001) %MON time_tsnumber                =                  3888
(PID.TID 0000.0001) %MON time_secondsf                =   2.0995200000000E+07
(PID.TID 0000.0001) %MON dynstat_eta_max              =   2.1465506725877E-09
(PID.TID 0000.0001) %MON dynstat_eta_min              =  -3.9948434459372E-09
(PID.TID 0000.0001) %MON dynstat_eta_mean             =   3.9209101036752E-13
(PID.TID 0000.0001) %MON dynstat_eta_sd               =   1.3716005483271E-09
(PID.TID 0000.0001) %MON dynstat_eta_del2             =   1.0519970520785E-14
(PID.TID 0000.0001) %MON dynstat_uvel_max             =   1.9094624106597E-09
(PID.TID 0000.0001) %MON dynstat_uvel_min             =  -1.3556583539548E-09
(PID.TID 0000.0001) %MON dynstat_uvel_mean            =   8.7663034070389E-14
(PID.TID 0000.0001) %MON dynstat_uvel_sd              =   5.6521168269318E-10
(PID.TID 0000.0001) %MON dynstat_uvel_del2            =   3.7603985086910E-14
(PID.TID 0000.0001) %MON dynstat_vvel_max             =   2.8376862383167E-09
(PID.TID 0000.0001) %MON dynstat_vvel_min             =  -2.1449180578486E-09
(PID.TID 0000.0001) %MON dynstat_vvel_mean            =  -2.6705798922637E-14
(PID.TID 0000.0001) %MON dynstat_vvel_sd              =   1.0111090180101E-09
(PID.TID 0000.0001) %MON dynstat_vvel_del2            =   5.3763455785071E-14
(PID.TID 0000.0001) %MON dynstat_wvel_max             =   8.8342144549669E-15
(PID.TID 0000.0001) %MON dynstat_wvel_min             =  -6.0243088689793E-15
(PID.TID 0000.0001) %MON dynstat_wvel_mean            =   9.7454618405166E-29
(PID.TID 0000.0001) %MON dynstat_wvel_sd              =   3.4490413255390E-15
(PID.TID 0000.0001) %MON dynstat_wvel_del2            =   2.1956083743402E-20
(PID.TID 0000.0001) %MON dynstat_theta_max            =   2.0000000000000E+01
(PID.TID 0000.0001) %MON dynstat_theta_min            =   2.0000000000000E+01
(PID.TID 0000.0001) %MON dynstat_theta_mean           =   2.0000000000000E+01
(PID.TID 0000.0001) %MON dynstat_theta_sd             =   0.0000000000000E+00
(PID.TID 0000.0001) %MON dynstat_theta_del2           =   0.0000000000000E+00
(PID.TID 0000.0001) %MON dynstat_salt_max             =   3.0000000000000E+01
(PID.TID 0000.0001) %MON dynstat_salt_min             =   3.0000000000000E+01
(PID.TID 0000.0001) %MON dynstat_salt_mean            =   3.0000000000000E+01
(PID.TID 0000.0001) %MON dynstat_salt_sd              =   0.0000000000000E+00
(PID.TID 0000.0001) %MON dynstat_salt_del2            =   0.0000000000000E+00
(PID.TID 0000.0001) %MON trAdv_CFL_u_max              =   2.0618439109889E-09
(PID.TID 0000.0001) %MON trAdv_CFL_v_max              =   3.0582032760089E-09
(PID.TID 0000.0001) %MON trAdv_CFL_w_max              =   9.5093375667821E-15
(PID.TID 0000.0001) %MON advcfl_uvel_max              =   2.0622194035125E-09
(PID.TID 0000.0001) %MON advcfl_vvel_max              =   3.0647011373820E-09
(PID.TID 0000.0001) %MON advcfl_wvel_max              =   1.9081903222729E-14
(PID.TID 0000.0001) %MON advcfl_W_hf_max              =   0.0000000000000E+00
(PID.TID 0000.0001) %MON pe_b_mean                    =   1.8455437417664E-21
(PID.TID 0000.0001) %MON ke_max                       =   4.0387965813189E-18
(PID.TID 0000.0001) %MON ke_mean                      =   6.6817560311648E-19
(PID.TID 0000.0001) %MON ke_vol                       =   7.5645000000000E+15
(PID.TID 0000.0001) %MON vort_r_min                   =  -1.0257894963016E-13
(PID.TID 0000.0001) %MON vort_r_max                   =   7.5599875276494E-14
(PID.TID 0000.0001) %MON vort_a_mean                  =   8.2300000000000E-05
(PID.TID 0000.0001) %MON vort_a_sd                    =   7.1297555115652E-06
(PID.TID 0000.0001) %MON vort_p_mean                  =   8.3303658536585E-05
(PID.TID 0000.0001) %MON vort_p_sd                    =   1.7411470229449E-05
(PID.TID 0000.0001) %MON surfExpan_theta_mean         =   1.9508150233893E-27
(PID.TID 0000.0001) %MON surfExpan_salt_mean          =   2.9115941545923E-27
(PID.TID 0000.0001) // =======================================================
(PID.TID 0000.0001) // End MONITOR dynamic field statistics
(PID.TID 0000.0001) // =======================================================
 cg2d: Sum(rhs),rhsMax =  -1.60269660470278E-02  2.53856487791215E-10
 cg2d: Sum(rhs),rhsMax =  -1.59258216607740E-02  2.55468720665559E-10
 cg2d: Sum(rhs),rhsMax =  -1.58281487704411E-02  2.57045174356296E-10
 cg2d: Sum(rhs),rhsMax =  -1.57338600517246E-02  2.58585574100498E-10
 cg2d: Sum(rhs),rhsMax =  -1.56428722459256E-02  2.60089652588519E-10
 cg2d: Sum(rhs),rhsMax =  -1.55551059437018E-02  2.61557150072850E-10
 cg2d: Sum(rhs),rhsMax =  -1.54704854391958E-02  2.62987814312291E-10
 cg2d: Sum(rhs),rhsMax =  -1.53889385333018E-02  2.64381400764434E-10
 cg2d: Sum(rhs),rhsMax =  -1.53103963711854E-02  2.65737672484756E-10
 cg2d: Sum(rhs),rhsMax =  -1.52347933481874E-02  2.67056400243596E-10
 cg2d: Sum(rhs),rhsMax =  -1.51620668917890E-02  2.68337362541297E-10
 cg2d: Sum(rhs),rhsMax =  -1.50921574154341E-02  2.69580345649496E-10
 cg2d: Sum(rhs),rhsMax =  -1.50250081303133E-02  2.70785143644288E-10
 cg2d: Sum(rhs),rhsMax =  -1.49605649527417E-02  2.71951558446372E-10
 cg2d: Sum(rhs),rhsMax =  -1.48987764318317E-02  2.73079399836504E-10
 cg2d: Sum(rhs),rhsMax =  -1.48395935826709E-02  2.74168485493901E-10
(PID.TID 0000.0001)      cg2d_init_res =   3.06232518657097E-01
(PID.TID 0000.0001)      cg2d_iters(min,last) =      -1     547
(PID.TID 0000.0001)      cg2d_last_res =   9.67573870966081E-08
(PID.TID 0000.0001) // =======================================================
(PID.TID 0000.0001) // Begin MONITOR dynamic field statistics
(PID.TID 0000.0001) // =======================================================
(PID.TID 0000.0001) %MON time_tsnumber                =                  3904
(PID.TID 0000.0001) %MON time_secondsf                =   2.1081600000000E+07
(PID.TID 0000.0001) %MON dynstat_eta_max              =   2.1294023643772E-09
(PID.TID 0000.0001) %MON dynstat_eta_min              =  -3.8101560485399E-09
(PID.TID 0000.0001) %MON dynstat_eta_mean             =   3.9209096782424E-13
(PID.TID 0000.0001) %MON dynstat_eta_sd               =   1.3602595876886E-09
(PID.TID 0000.0001) %MON dynstat_eta_del2             =   1.0501234335157E-14
(PID.TID 0000.0001) %MON dynstat_uvel_max             =   1.8984706806721E-09
(PID.TID 0000.0001) %MON dynstat_uvel_min             =  -1.2549535854492E-09
(PID.TID 0000.0001) %MON dynstat_uvel_mean            =   5.4231240146232E-14
(PID.TID 0000.0001) %MON dynstat_uvel_sd              =   5.4006469005731E-10
(PID.TID 0000.0001) %MON dynstat_uvel_del2            =   3.8091036167856E-14
(PID.TID 0000.0001) %MON dynstat_vvel_max             =   2.9224689141155E-09
(PID.TID 0000.0001) %MON dynstat_vvel_min             =  -1.9750037917760E-09
(PID.TID 0000.0001) %MON dynstat_vvel_mean            =  -2.7252453300497E-14
(PID.TID 0000.0001) %MON dynstat_vvel_sd              =   1.0165540049487E-09
(PID.TID 0000.0001) %MON dynstat_vvel_del2            =   5.3194398216642E-14
(PID.TID 0000.0001) %MON dynstat_wvel_max             =   9.2028403475553E-15
(PID.TID 0000.0001) %MON dynstat_wvel_min             =  -5.2074662537649E-15
(PID.TID 0000.0001) %MON dynstat_wvel_mean            =   1.3013329888454E-28
(PID.TID 0000.0001) %MON dynstat_wvel_sd              =   3.4145983901751E-15
(PID.TID 0000.0001) %MON dynstat_wvel_del2            =   2.1435667314126E-20
(PID.TID 0000.0001) %MON dynstat_theta_max            =   2.0000000000000E+01
(PID.TID 0000.0001) %MON dynstat_theta_min            =   2.0000000000000E+01
(PID.TID 0000.0001) %MON dynstat_theta_mean           =   2.0000000000000E+01
(PID.TID 0000.0001) %MON dynstat_theta_sd             =   0.0000000000000E+00
(PID.TID 0000.0001) %MON dynstat_theta_del2           =   0.0000000000000E+00
(PID.TID 0000.0001) %MON dynstat_salt_max             =   3.0000000000000E+01
(PID.TID 0000.0001) %MON dynstat_salt_min             =   3.0000000000000E+01
(PID.TID 0000.0001) %MON dynstat_salt_mean            =   3.0000000000000E+01
(PID.TID 0000.0001) %MON dynstat_salt_sd              =   0.0000000000000E+00
(PID.TID 0000.0001) %MON dynstat_salt_del2            =   0.0000000000000E+00
(PID.TID 0000.0001) %MON trAdv_CFL_u_max              =   2.0519826644385E-09
(PID.TID 0000.0001) %MON trAdv_CFL_v_max              =   3.1518956122750E-09
(PID.TID 0000.0001) %MON trAdv_CFL_w_max              =   9.9196063938933E-15
(PID.TID 0000.0001) %MON advcfl_uvel_max              =   2.0503483351258E-09
(PID.TID 0000.0001) %MON advcfl_vvel_max              =   3.1562664272447E-09
(PID.TID 0000.0001) %MON advcfl_wvel_max              =   1.9878135150719E-14
(PID.TID 0000.0001) %MON advcfl_W_hf_max              =   0.0000000000000E+00
(PID.TID 0000.0001) %MON pe_b_mean                    =   1.8151504799410E-21
(PID.TID 0000.0001) %MON ke_max                       =   4.2782111288699E-18
(PID.TID 0000.0001) %MON ke_mean                      =   6.5983276409832E-19
(PID.TID 0000.0001) %MON ke_vol                       =   7.5645000000000E+15
(PID.TID 0000.0001) %MON vort_r_min                   =  -1.1462733943613E-13
(PID.TID 0000.0001) %MON vort_r_max                   =   6.8313743460320E-14
(PID.TID 0000.0001) %MON vort_a_mean                  =   8.2300000000001E-05
(PID.TID 0000.0001) %MON vort_a_sd                    =   7.1297555115547E-06
(PID.TID 0000.0001) %MON vort_p_mean                  =   8.3303658536586E-05
(PID.TID 0000.0001) %MON vort_p_sd                    =   1.7411470229473E-05
(PID.TID 0000.0001) %MON surfExpan_theta_mean         =   2.6445119963808E-27
(PID.TID 0000.0001) %MON surfExpan_salt_mean          =   3.9882805822937E-27
(PID.TID 0000.0001) // =======================================================
(PID.TID 0000.0001) // End MONITOR dynamic field statistics
(PID.TID 0000.0001) // =======================================================
 cg2d: Sum(rhs),rhsMax =  -1.47829698429308E-02  2.75218641004150E-10
 cg2d: Sum(rhs),rhsMax =  -1.47288609532292E-02  2.76229699966528E-10
 cg2d: Sum(rhs),rhsMax =  -1.46772249014598E-02  2.77201503881727E-10
 cg2d: Sum(rhs),rhsMax =  -1.46280218018718E-02  2.78133902322041E-10
 cg2d: Sum(rhs),rhsMax =  -1.45812138682672E-02  2.79026752813135E-10
 cg2d: Sum(rhs),rhsMax =  -1.45367653191638E-02  2.79879920986696E-10
 cg2d: Sum(rhs),rhsMax =  -1.44946423214434E-02  2.80693280469774E-10
 cg2d: Sum(rhs),rhsMax =  -1.44548129013545E-02  2.81466713024282E-10
 cg2d: Sum(rhs),rhsMax =  -1.44172469359450E-02  2.82200108442421E-10
 cg2d: Sum(rhs),rhsMax =  -1.43819160587087E-02  2.82893364672963E-10
 cg2d: Sum(rhs),rhsMax =  -1.43487936247763E-02  2.83546387723704E-10
 cg2d: Sum(rhs),rhsMax =  -1.43178546549633E-02  2.84159091772944E-10
 cg2d: Sum(rhs),rhsMax =  -1.42890758145266E-02  2.84731399080777E-10
 cg2d: Sum(rhs),rhsMax =  -1.42624353517158E-02  2.85263240075506E-10
 cg2d: Sum(rhs),rhsMax =  -1.42379130819846E-02  2.85754553308558E-10
 cg2d: Sum(rhs),rhsMax =  -1.42154903238055E-02  2.86205285488594E-10
(PID.TID 0000.0001)      cg2d_init_res =   2.86361529497137E-01
(PID.TID 0000.0001)      cg2d_iters(min,last) =      -1     546
(PID.TID 0000.0001)      cg2d_last_res =   9.71233354677126E-08
(PID.TID 0000.0001) // =======================================================
(PID.TID 0000.0001) // Begin MONITOR dynamic field statistics
(PID.TID 0000.0001) // =======================================================
(PID.TID 0000.0001) %MON time_tsnumber                =                  3920
(PID.TID 0000.0001) %MON time_secondsf                =   2.1168000000000E+07
(PID.TID 0000.0001) %MON dynstat_eta_max              =   2.3668661096498E-09
(PID.TID 0000.0001) %MON dynstat_eta_min              =  -3.5687433434365E-09
(PID.TID 0000.0001) %MON dynstat_eta_mean             =   3.9209092641396E-13
(PID.TID 0000.0001) %MON dynstat_eta_sd               =   1.3460418475867E-09
(PID.TID 0000.0001) %MON dynstat_eta_del2             =   1.0487509683899E-14
(PID.TID 0000.0001) %MON dynstat_uvel_max             =   1.8550917599845E-09
(PID.TID 0000.0001) %MON dynstat_uvel_min             =  -1.1411883788571E-09
(PID.TID 0000.0001) %MON dynstat_uvel_mean            =   1.8676481456053E-14
(PID.TID 0000.0001) %MON dynstat_uvel_sd              =   5.1899189742743E-10
(PID.TID 0000.0001) %MON dynstat_uvel_del2            =   3.9064100048245E-14
(PID.TID 0000.0001) %MON dynstat_vvel_max             =   2.9733668625164E-09
(PID.TID 0000.0001) %MON dynstat_vvel_min             =  -1.9496833641610E-09
(PID.TID 0000.0001) %MON dynstat_vvel_mean            =  -2.7048530229005E-14
(PID.TID 0000.0001) %MON dynstat_vvel_sd              =   1.0192550439128E-09
(PID.TID 0000.0001) %MON dynstat_vvel_del2            =   5.1968765095564E-14
(PID.TID 0000.0001) %MON dynstat_wvel_max             =   9.4150509832858E-15
(PID.TID 0000.0001) %MON dynstat_wvel_min             =  -4.4165830717646E-15
(PID.TID 0000.0001) %MON dynstat_wvel_mean            =  -7.9629049040289E-29
(PID.TID 0000.0001) %MON dynstat_wvel_sd              =   3.3901861816358E-15
(PID.TID 0000.0001) %MON dynstat_wvel_del2            =   2.0926603568135E-20
(PID.TID 0000.0001) %MON dynstat_theta_max            =   2.0000000000000E+01
(PID.TID 0000.0001) %MON dynstat_theta_min            =   2.0000000000000E+01
(PID.TID 0000.0001) %MON dynstat_theta_mean           =   2.0000000000000E+01
(PID.TID 0000.0001) %MON dynstat_theta_sd             =   0.0000000000000E+00
(PID.TID 0000.0001) %MON dynstat_theta_del2           =   0.0000000000000E+00
(PID.TID 0000.0001) %MON dynstat_salt_max             =   3.0000000000000E+01
(PID.TID 0000.0001) %MON dynstat_salt_min             =   3.0000000000000E+01
(PID.TID 0000.0001) %MON dynstat_salt_mean            =   3.0000000000000E+01
(PID.TID 0000.0001) %MON dynstat_salt_sd              =   0.0000000000000E+00
(PID.TID 0000.0001) %MON dynstat_salt_del2            =   0.0000000000000E+00
(PID.TID 0000.0001) %MON trAdv_CFL_u_max              =   2.0074268850799E-09
(PID.TID 0000.0001) %MON trAdv_CFL_v_max              =   3.2091131017593E-09
(PID.TID 0000.0001) %MON trAdv_CFL_w_max              =   1.0159436558821E-14
(PID.TID 0000.0001) %MON advcfl_uvel_max              =   2.0034991007833E-09
(PID.TID 0000.0001) %MON advcfl_vvel_max              =   3.2112362115177E-09
(PID.TID 0000.0001) %MON advcfl_wvel_max              =   2.0336510123897E-14
(PID.TID 0000.0001) %MON advcfl_W_hf_max              =   0.0000000000000E+00
(PID.TID 0000.0001) %MON pe_b_mean                    =   1.7774040618153E-21
(PID.TID 0000.0001) %MON ke_max                       =   4.4234867741305E-18
(PID.TID 0000.0001) %MON ke_mean                      =   6.5145770656157E-19
(PID.TID 0000.0001) %MON ke_vol                       =   7.5645000000000E+15
(PID.TID 0000.0001) %MON vort_r_min                   =  -1.2262778435396E-13
(PID.TID 0000.0001) %MON vort_r_max                   =   6.3212719142955E-14
(PID.TID 0000.0001) %MON vort_a_mean                  =   8.2299999999999E-05
(PID.TID 0000.0001) %MON vort_a_sd                    =   7.1297555115661E-06
(PID.TID 0000.0001) %MON vort_p_mean                  =   8.3303658536585E-05
(PID.TID 0000.0001) %MON vort_p_sd                    =   1.7411470229510E-05
(PID.TID 0000.0001) %MON surfExpan_theta_mean         =  -1.5416727475861E-27
(PID.TID 0000.0001) %MON surfExpan_salt_mean          =  -2.3896418036961E-27
(PID.TID 0000.0001) // =======================================================
(PID.TID 0000.0001) // End MONITOR dynamic field statistics
(PID.TID 0000.0001) // =======================================================
 cg2d: Sum(rhs),rhsMax =  -1.41951498828988E-02  2.86615391436039E-10
 cg2d: Sum(rhs),rhsMax =  -1.41768760173990E-02  2.86984834124483E-10
 cg2d: Sum(rhs),rhsMax =  -1.41606544263085E-02  2.87313584662984E-10
 cg2d: Sum(rhs),rhsMax =  -1.41464722130416E-02  2.87601622291756E-10
 cg2d: Sum(rhs),rhsMax =  -1.41343178539002E-02  2.87848934376082E-10
 cg2d: Sum(rhs),rhsMax =  -1.41241811807522E-02  2.88055516398972E-10
 cg2d: Sum(rhs),rhsMax =  -1.41160534017881E-02  2.88221371950656E-10
 cg2d: Sum(rhs),rhsMax =  -1.41099270213960E-02  2.88346512716337E-10
 cg2d: Sum(rhs),rhsMax =  -1.41057958749914E-02  2.88430958463349E-10
 cg2d: Sum(rhs),rhsMax =  -1.41036551076567E-02  2.88474737026383E-10
 cg2d: Sum(rhs),rhsMax =  -1.41035011503296E-02  2.88477884290864E-10
 cg2d: Sum(rhs),rhsMax =  -1.41053317185266E-02  2.88440444174597E-10
 cg2d: Sum(rhs),rhsMax =  -1.41091458139420E-02  2.88362468607874E-10
 cg2d: Sum(rhs),rhsMax =  -1.41149437436334E-02  2.88244017511626E-10
 cg2d: Sum(rhs),rhsMax =  -1.41227270666336E-02  2.88085158774169E-10
 cg2d: Sum(rhs),rhsMax =  -1.41324985970980E-02  2.87885968226218E-10
(PID.TID 0000.0001)      cg2d_init_res =   2.79123112222299E-01
(PID.TID 0000.0001)      cg2d_iters(min,last) =      -1     546
(PID.TID 0000.0001)      cg2d_last_res =   9.46071141411457E-08
(PID.TID 0000.0001) // =======================================================
(PID.TID 0000.0001) // Begin MONITOR dynamic field statistics
(PID.TID 0000.0001) // =======================================================
(PID.TID 0000.0001) %MON time_tsnumber                =                  3936
(PID.TID 0000.0001) %MON time_secondsf                =   2.1254400000000E+07
(PID.TID 0000.0001) %MON dynstat_eta_max              =   2.7069024668639E-09
(PID.TID 0000.0001) %MON dynstat_eta_min              =  -3.2786818510458E-09
(PID.TID 0000.0001) %MON dynstat_eta_mean             =   3.9209088565512E-13
(PID.TID 0000.0001) %MON dynstat_eta_sd               =   1.3291767113784E-09
(PID.TID 0000.0001) %MON dynstat_eta_del2             =   1.0463173622704E-14
(PID.TID 0000.0001) %MON dynstat_uvel_max             =   1.7829360731656E-09
(PID.TID 0000.0001) %MON dynstat_uvel_min             =  -1.1234868912247E-09
(PID.TID 0000.0001) %MON dynstat_uvel_mean            =  -1.7002299039732E-14
(PID.TID 0000.0001) %MON dynstat_uvel_sd              =   5.0499375493244E-10
(PID.TID 0000.0001) %MON dynstat_uvel_del2            =   4.0225243648172E-14
(PID.TID 0000.0001) %MON dynstat_vvel_max             =   2.9894428717011E-09
(PID.TID 0000.0001) %MON dynstat_vvel_min             =  -2.0877253664045E-09
(PID.TID 0000.0001) %MON dynstat_vvel_mean            =  -2.6088547971810E-14
(PID.TID 0000.0001) %MON dynstat_vvel_sd              =   1.0180500246952E-09
(PID.TID 0000.0001) %MON dynstat_vvel_del2            =   5.0196697762269E-14
(PID.TID 0000.0001) %MON dynstat_wvel_max             =   9.4716353432611E-15
(PID.TID 0000.0001) %MON dynstat_wvel_min             =  -3.6674444471585E-15
(PID.TID 0000.0001) %MON dynstat_wvel_mean            =  -1.6391327336126E-28
(PID.TID 0000.0001) %MON dynstat_wvel_sd              =   3.3751952345717E-15
(PID.TID 0000.0001) %MON dynstat_wvel_del2            =   2.0443823195300E-20
(PID.TID 0000.0001) %MON dynstat_theta_max            =   2.0000000000000E+01
(PID.TID 0000.0001) %MON dynstat_theta_min            =   2.0000000000000E+01
(PID.TID 0000.0001) %MON dynstat_theta_mean           =   2.0000000000000E+01
(PID.TID 0000.0001) %MON dynstat_theta_sd             =   0.0000000000000E+00
(PID.TID 0000.0001) %MON dynstat_theta_del2           =   0.0000000000000E+00
(PID.TID 0000.0001) %MON dynstat_salt_max             =   3.0000000000000E+01
(PID.TID 0000.0001) %MON dynstat_salt_min             =   3.0000000000000E+01
(PID.TID 0000.0001) %MON dynstat_salt_mean            =   3.0000000000000E+01
(PID.TID 0000.0001) %MON dynstat_salt_sd              =   0.0000000000000E+00
(PID.TID 0000.0001) %MON dynstat_salt_del2            =   0.0000000000000E+00
(PID.TID 0000.0001) %MON trAdv_CFL_u_max              =   1.9310858640140E-09
(PID.TID 0000.0001) %MON trAdv_CFL_v_max              =   3.2287487201371E-09
(PID.TID 0000.0001) %MON trAdv_CFL_w_max              =   1.0230084657592E-14
(PID.TID 0000.0001) %MON advcfl_uvel_max              =   1.9255709590188E-09
(PID.TID 0000.0001) %MON advcfl_vvel_max              =   3.2285983014372E-09
(PID.TID 0000.0001) %MON advcfl_wvel_max              =   2.0458732341444E-14
(PID.TID 0000.0001) %MON advcfl_W_hf_max              =   0.0000000000000E+00
(PID.TID 0000.0001) %MON pe_b_mean                    =   1.7331433770136E-21
(PID.TID 0000.0001) %MON ke_max                       =   4.4685208302720E-18
(PID.TID 0000.0001) %MON ke_mean                      =   6.4309738584703E-19
(PID.TID 0000.0001) %MON ke_vol                       =   7.5645000000000E+15
(PID.TID 0000.0001) %MON vort_r_min                   =  -1.2625106337511E-13
(PID.TID 0000.0001) %MON vort_r_max                   =   7.7304437806467E-14
(PID.TID 0000.0001) %MON vort_a_mean                  =   8.2300000000000E-05
(PID.TID 0000.0001) %MON vort_a_sd                    =   7.1297555115545E-06
(PID.TID 0000.0001) %MON vort_p_mean                  =   8.3303658536586E-05
(PID.TID 0000.0001) %MON vort_p_sd                    =   1.7411470229541E-05
(PID.TID 0000.0001) %MON surfExpan_theta_mean         =  -3.3149518151460E-27
(PID.TID 0000.0001) %MON surfExpan_salt_mean          =  -5.0323879583718E-27
(PID.TID 0000.0001) // =======================================================
(PID.TID 0000.0001) // End MONITOR dynamic field statistics
(PID.TID 0000.0001) // =======================================================
 cg2d: Sum(rhs),rhsMax =  -1.41442624830362E-02  2.87646529614177E-10
 cg2d: Sum(rhs),rhsMax =  -1.41580241150941E-02  2.87366934571890E-10
 cg2d: Sum(rhs),rhsMax =  -1.41737902105614E-02  2.87047282590720E-10
 cg2d: Sum(rhs),rhsMax =  -1.41915687556462E-02  2.86687680987994E-10
 cg2d: Sum(rhs),rhsMax =  -1.42113690778759E-02  2.86288244873868E-10
 cg2d: Sum(rhs),rhsMax =  -1.42332018000007E-02  2.85849097116523E-10
 cg2d: Sum(rhs),rhsMax =  -1.42570789006819E-02  2.85370368305789E-10
 cg2d: Sum(rhs),rhsMax =  -1.42830137036594E-02  2.84852196715161E-10
 cg2d: Sum(rhs),rhsMax =  -1.43110209172168E-02  2.84294728262196E-10
 cg2d: Sum(rhs),rhsMax =  -1.43411166312491E-02  2.83698116467409E-10
 cg2d: Sum(rhs),rhsMax =  -1.43733183607076E-02  2.83062522411515E-10
 cg2d: Sum(rhs),rhsMax =  -1.44076450605215E-02  2.82388114691176E-10
 cg2d: Sum(rhs),rhsMax =  -1.44441171468764E-02  2.81675069373184E-10
 cg2d: Sum(rhs),rhsMax =  -1.44827565440437E-02  2.80923569947127E-10
 cg2d: Sum(rhs),rhsMax =  -1.45235867236278E-02  2.80133807276496E-10
 cg2d: Sum(rhs),rhsMax =  -1.45666327035011E-02  2.79305979548335E-10
(PID.TID 0000.0001)      cg2d_init_res =   2.83689215866642E-01
(PID.TID 0000.0001)      cg2d_iters(min,last) =      -1     546
(PID.TID 0000.0001)      cg2d_last_res =   9.48955028373430E-08
(PID.TID 0000.0001) // =======================================================
(PID.TID 0000.0001) // Begin MONITOR dynamic field statistics
(PID.TID 0000.0001) // =======================================================
(PID.TID 0000.0001) %MON time_tsnumber                =                  3952
(PID.TID 0000.0001) %MON time_secondsf                =   2.1340800000000E+07
(PID.TID 0000.0001) %MON dynstat_eta_max              =   2.9930883615297E-09
(PID.TID 0000.0001) %MON dynstat_eta_min              =  -2.9539703435991E-09
(PID.TID 0000.0001) %MON dynstat_eta_mean             =   3.9209084430802E-13
(PID.TID 0000.0001) %MON dynstat_eta_sd               =   1.3105495392352E-09
(PID.TID 0000.0001) %MON dynstat_eta_del2             =   1.0415346244458E-14
(PID.TID 0000.0001) %MON dynstat_uvel_max             =   1.6853609791022E-09
(PID.TID 0000.0001) %MON dynstat_uvel_min             =  -1.3732782823783E-09
(PID.TID 0000.0001) %MON dynstat_uvel_mean            =  -5.0831665844938E-14
(PID.TID 0000.0001) %MON dynstat_uvel_sd              =   4.9940882308976E-10
(PID.TID 0000.0001) %MON dynstat_uvel_del2            =   4.1284764727420E-14
(PID.TID 0000.0001) %MON dynstat_vvel_max             =   2.9680021852686E-09
(PID.TID 0000.0001) %MON dynstat_vvel_min             =  -2.1538461511929E-09
(PID.TID 0000.0001) %MON dynstat_vvel_mean            =  -2.4401308489945E-14
(PID.TID 0000.0001) %MON dynstat_vvel_sd              =   1.0126213303282E-09
(PID.TID 0000.0001) %MON dynstat_vvel_del2            =   4.8042524689606E-14
(PID.TID 0000.0001) %MON dynstat_wvel_max             =   9.3744577517318E-15
(PID.TID 0000.0001) %MON dynstat_wvel_min             =  -3.6122875321509E-15
(PID.TID 0000.0001) %MON dynstat_wvel_mean            =  -6.0716625941001E-29
(PID.TID 0000.0001) %MON dynstat_wvel_sd              =   3.3670192747332E-15
(PID.TID 0000.0001) %MON dynstat_wvel_del2            =   2.0040969139069E-20
(PID.TID 0000.0001) %MON dynstat_theta_max            =   2.0000000000000E+01
(PID.TID 0000.0001) %MON dynstat_theta_min            =   2.0000000000000E+01
(PID.TID 0000.0001) %MON dynstat_theta_mean           =   2.0000000000000E+01
(PID.TID 0000.0001) %MON dynstat_theta_sd             =   0.0000000000000E+00
(PID.TID 0000.0001) %MON dynstat_theta_del2           =   0.0000000000000E+00
(PID.TID 0000.0001) %MON dynstat_salt_max             =   3.0000000000000E+01
(PID.TID 0000.0001) %MON dynstat_salt_min             =   3.0000000000000E+01
(PID.TID 0000.0001) %MON dynstat_salt_mean            =   3.0000000000000E+01
(PID.TID 0000.0001) %MON dynstat_salt_sd              =   0.0000000000000E+00
(PID.TID 0000.0001) %MON dynstat_salt_del2            =   0.0000000000000E+00
(PID.TID 0000.0001) %MON trAdv_CFL_u_max              =   1.8275595238192E-09
(PID.TID 0000.0001) %MON trAdv_CFL_v_max              =   3.2078041999132E-09
(PID.TID 0000.0001) %MON trAdv_CFL_w_max              =   1.0134891260027E-14
(PID.TID 0000.0001) %MON advcfl_uvel_max              =   1.8201898574304E-09
(PID.TID 0000.0001) %MON advcfl_vvel_max              =   3.2054423600901E-09
(PID.TID 0000.0001) %MON advcfl_wvel_max              =   2.0248828743741E-14
(PID.TID 0000.0001) %MON advcfl_W_hf_max              =   0.0000000000000E+00
(PID.TID 0000.0001) %MON pe_b_mean                    =   1.6849069838029E-21
(PID.TID 0000.0001) %MON ke_max                       =   4.4055427980259E-18
(PID.TID 0000.0001) %MON ke_mean                      =   6.3481448765600E-19
(PID.TID 0000.0001) %MON ke_vol                       =   7.5645000000000E+15
(PID.TID 0000.0001) %MON vort_r_min                   =  -1.2539314248191E-13
(PID.TID 0000.0001) %MON vort_r_max                   =   8.9811068234929E-14
(PID.TID 0000.0001) %MON vort_a_mean                  =   8.2300000000001E-05
(PID.TID 0000.0001) %MON vort_a_sd                    =   7.1297555115524E-06
(PID.TID 0000.0001) %MON vort_p_mean                  =   8.3303658536586E-05
(PID.TID 0000.0001) %MON vort_p_sd                    =   1.7411470229577E-05
(PID.TID 0000.0001) %MON surfExpan_theta_mean         =  -1.3285624157447E-27
(PID.TID 0000.0001) %MON surfExpan_salt_mean          =  -2.0191240959180E-27
(PID.TID 0000.0001) // =======================================================
(PID.TID 0000.0001) // End MONITOR dynamic field statistics
(PID.TID 0000.0001) // =======================================================
 cg2d: Sum(rhs),rhsMax =  -1.46119211255804E-02  2.78440292221349E-10
 cg2d: Sum(rhs),rhsMax =  -1.46594802477553E-02  2.77536958100177E-10
 cg2d: Sum(rhs),rhsMax =  -1.47093400729513E-02  2.76596196773532E-10
 cg2d: Sum(rhs),rhsMax =  -1.47615323097800E-02  2.75618235434099E-10
 cg2d: Sum(rhs),rhsMax =  -1.48160904811943E-02  2.74603307807984E-10
 cg2d: Sum(rhs),rhsMax =  -1.48730499234829E-02  2.73551655087823E-10
 cg2d: Sum(rhs),rhsMax =  -1.49324478650012E-02  2.72463525148938E-10
 cg2d: Sum(rhs),rhsMax =  -1.49943235440613E-02  2.71339172653726E-10
 cg2d: Sum(rhs),rhsMax =  -1.50587182012554E-02  2.70178859396408E-10
 cg2d: Sum(rhs),rhsMax =  -1.51256751848976E-02  2.68982853553331E-10
 cg2d: Sum(rhs),rhsMax =  -1.51952399665333E-02  2.67751430264373E-10
 cg2d: Sum(rhs),rhsMax =  -1.52674603281648E-02  2.66484871083587E-10
 cg2d: Sum(rhs),rhsMax =  -1.53423863612955E-02  2.65183464051308E-10
 cg2d: Sum(rhs),rhsMax =  -1.54200705626736E-02  2.63847503949909E-10
 cg2d: Sum(rhs),rhsMax =  -1.55005679762073E-02  2.62477291610339E-10
 cg2d: Sum(rhs),rhsMax =  -1.55839362178191E-02  2.61073134453077E-10
(PID.TID 0000.0001)      cg2d_init_res =   3.01045189981768E-01
(PID.TID 0000.0001)      cg2d_iters(min,last) =      -1     536
(PID.TID 0000.0001)      cg2d_last_res =   8.94685515076356E-08
(PID.TID 0000.0001) // =======================================================
(PID.TID 0000.0001) // Begin MONITOR dynamic field statistics
(PID.TID 0000.0001) // =======================================================
(PID.TID 0000.0001) %MON time_tsnumber                =                  3968
(PID.TID 0000.0001) %MON time_secondsf                =   2.1427200000000E+07
(PID.TID 0000.0001) %MON dynstat_eta_max              =   3.2193428244241E-09
(PID.TID 0000.0001) %MON dynstat_eta_min              =  -2.6078428538322E-09
(PID.TID 0000.0001) %MON dynstat_eta_mean             =   3.9209079280035E-13
(PID.TID 0000.0001) %MON dynstat_eta_sd               =   1.2915400703780E-09
(PID.TID 0000.0001) %MON dynstat_eta_del2             =   1.0335686996319E-14
(PID.TID 0000.0001) %MON dynstat_uvel_max             =   1.5659419360824E-09
(PID.TID 0000.0001) %MON dynstat_uvel_min             =  -1.6047250902715E-09
(PID.TID 0000.0001) %MON dynstat_uvel_mean            =  -8.0971846674457E-14
(PID.TID 0000.0001) %MON dynstat_uvel_sd              =   5.0147196210362E-10
(PID.TID 0000.0001) %MON dynstat_uvel_del2            =   4.2019813937707E-14
(PID.TID 0000.0001) %MON dynstat_vvel_max             =   2.9064141235391E-09
(PID.TID 0000.0001) %MON dynstat_vvel_min             =  -2.1459976628048E-09
(PID.TID 0000.0001) %MON dynstat_vvel_mean            =  -2.2048564820557E-14
(PID.TID 0000.0001) %MON dynstat_vvel_sd              =   1.0034918057224E-09
(PID.TID 0000.0001) %MON dynstat_vvel_del2            =   4.5702449916857E-14
(PID.TID 0000.0001) %MON dynstat_wvel_max             =   9.1303362709239E-15
(PID.TID 0000.0001) %MON dynstat_wvel_min             =  -3.8622554361656E-15
(PID.TID 0000.0001) %MON dynstat_wvel_mean            =  -4.0942438765942E-28
(PID.TID 0000.0001) %MON dynstat_wvel_sd              =   3.3616839556483E-15
(PID.TID 0000.0001) %MON dynstat_wvel_del2            =   1.9738937599191E-20
(PID.TID 0000.0001) %MON dynstat_theta_max            =   2.0000000000000E+01
(PID.TID 0000.0001) %MON dynstat_theta_min            =   2.0000000000000E+01
(PID.TID 0000.0001) %MON dynstat_theta_mean           =   2.0000000000000E+01
(PID.TID 0000.0001) %MON dynstat_theta_sd             =   0.0000000000000E+00
(PID.TID 0000.0001) %MON dynstat_theta_del2           =   0.0000000000000E+00
(PID.TID 0000.0001) %MON dynstat_salt_max             =   3.0000000000000E+01
(PID.TID 0000.0001) %MON dynstat_salt_min             =   3.0000000000000E+01
(PID.TID 0000.0001) %MON dynstat_salt_mean            =   3.0000000000000E+01
(PID.TID 0000.0001) %MON dynstat_salt_sd              =   0.0000000000000E+00
(PID.TID 0000.0001) %MON dynstat_salt_del2            =   0.0000000000000E+00
(PID.TID 0000.0001) %MON trAdv_CFL_u_max              =   1.7184905611969E-09
(PID.TID 0000.0001) %MON trAdv_CFL_v_max              =   3.1447016197458E-09
(PID.TID 0000.0001) %MON trAdv_CFL_w_max              =   9.8819161497676E-15
(PID.TID 0000.0001) %MON advcfl_uvel_max              =   1.7331030974933E-09
(PID.TID 0000.0001) %MON advcfl_vvel_max              =   3.1389272534222E-09
(PID.TID 0000.0001) %MON advcfl_wvel_max              =   1.9721526345196E-14
(PID.TID 0000.0001) %MON advcfl_W_hf_max              =   0.0000000000000E+00
(PID.TID 0000.0001) %MON pe_b_mean                    =   1.6363824648918E-21
(PID.TID 0000.0001) %MON ke_max                       =   4.2311482442318E-18
(PID.TID 0000.0001) %MON ke_mean                      =   6.2667710425370E-19
(PID.TID 0000.0001) %MON ke_vol                       =   7.5645000000000E+15
(PID.TID 0000.0001) %MON vort_r_min                   =  -1.2018607381525E-13
(PID.TID 0000.0001) %MON vort_r_max                   =   1.0033939520090E-13
(PID.TID 0000.0001) %MON vort_a_mean                  =   8.2300000000000E-05
(PID.TID 0000.0001) %MON vort_a_sd                    =   7.1297555115580E-06
(PID.TID 0000.0001) %MON vort_p_mean                  =   8.3303658536585E-05
(PID.TID 0000.0001) %MON vort_p_sd                    =   1.7411470229616E-05
(PID.TID 0000.0001) %MON surfExpan_theta_mean         =  -8.1939266766505E-27
(PID.TID 0000.0001) %MON surfExpan_salt_mean          =  -1.2255685085633E-26
(PID.TID 0000.0001) // =======================================================
(PID.TID 0000.0001) // End MONITOR dynamic field statistics
(PID.TID 0000.0001) // =======================================================
 cg2d: Sum(rhs),rhsMax =  -1.56702356418701E-02  2.59635346048937E-10
 cg2d: Sum(rhs),rhsMax =  -1.57595294305974E-02  2.58164246160684E-10
 cg2d: Sum(rhs),rhsMax =  -1.58518836934947E-02  2.56660160642544E-10
 cg2d: Sum(rhs),rhsMax =  -1.59472407894252E-02  2.55125450792424E-10
 cg2d: Sum(rhs),rhsMax =  -1.60455206537409E-02  2.53562789586697E-10
 cg2d: Sum(rhs),rhsMax =  -1.61470617337708E-02  2.51968254385709E-10
 cg2d: Sum(rhs),rhsMax =  -1.62519425575924E-02  2.50342192822213E-10
 cg2d: Sum(rhs),rhsMax =  -1.63602452936135E-02  2.48684958195255E-10
 cg2d: Sum(rhs),rhsMax =  -1.64720558786750E-02  2.46996909387472E-10
 cg2d: Sum(rhs),rhsMax =  -1.65874642488171E-02  2.45278410728127E-10
 cg2d: Sum(rhs),rhsMax =  -1.67065644656091E-02  2.43529832123182E-10
 cg2d: Sum(rhs),rhsMax =  -1.68294550014442E-02  2.41751548649090E-10
 cg2d: Sum(rhs),rhsMax =  -1.69562388766495E-02  2.39943940650002E-10
 cg2d: Sum(rhs),rhsMax =  -1.70870239755498E-02  2.38107393648011E-10
 cg2d: Sum(rhs),rhsMax =  -1.72219231538403E-02  2.36242298354274E-10
 cg2d: Sum(rhs),rhsMax =  -1.73610546763364E-02  2.34349050184279E-10
(PID.TID 0000.0001)      cg2d_init_res =   3.34303124767828E-01
(PID.TID 0000.0001)      cg2d_iters(min,last) =      -1     543
(PID.TID 0000.0001)      cg2d_last_res =   9.65035397377787E-08
(PID.TID 0000.0001) // =======================================================
(PID.TID 0000.0001) // Begin MONITOR dynamic field statistics
(PID.TID 0000.0001) // =======================================================
(PID.TID 0000.0001) %MON time_tsnumber                =                  3984
(PID.TID 0000.0001) %MON time_secondsf                =   2.1513600000000E+07
(PID.TID 0000.0001) %MON dynstat_eta_max              =   3.3816186305566E-09
(PID.TID 0000.0001) %MON dynstat_eta_min              =  -2.2546776624004E-09
(PID.TID 0000.0001) %MON dynstat_eta_mean             =   3.9209075316126E-13
(PID.TID 0000.0001) %MON dynstat_eta_sd               =   1.2737502427734E-09
(PID.TID 0000.0001) %MON dynstat_eta_del2             =   1.0221314233379E-14
(PID.TID 0000.0001) %MON dynstat_uvel_max             =   1.4312667466368E-09
(PID.TID 0000.0001) %MON dynstat_uvel_min             =  -1.8126907802062E-09
(PID.TID 0000.0001) %MON dynstat_uvel_mean            =  -1.0581619049563E-13
(PID.TID 0000.0001) %MON dynstat_uvel_sd              =   5.0864988511395E-10
(PID.TID 0000.0001) %MON dynstat_uvel_del2            =   4.2301334910039E-14
(PID.TID 0000.0001) %MON dynstat_vvel_max             =   2.8045424099238E-09
(PID.TID 0000.0001) %MON dynstat_vvel_min             =  -2.0657943283446E-09
(PID.TID 0000.0001) %MON dynstat_vvel_mean            =  -1.9121936061519E-14
(PID.TID 0000.0001) %MON dynstat_vvel_sd              =   9.9187853612690E-10
(PID.TID 0000.0001) %MON dynstat_vvel_del2            =   4.3377173089618E-14
(PID.TID 0000.0001) %MON dynstat_wvel_max             =   8.7501688955660E-15
(PID.TID 0000.0001) %MON dynstat_wvel_min             =  -4.6758718733053E-15
(PID.TID 0000.0001) %MON dynstat_wvel_mean            =  -6.9212112107319E-29
(PID.TID 0000.0001) %MON dynstat_wvel_sd              =   3.3547608282823E-15
(PID.TID 0000.0001) %MON dynstat_wvel_del2            =   1.9548954265196E-20
(PID.TID 0000.0001) %MON dynstat_theta_max            =   2.0000000000000E+01
(PID.TID 0000.0001) %MON dynstat_theta_min            =   2.0000000000000E+01
(PID.TID 0000.0001) %MON dynstat_theta_mean           =   2.0000000000000E+01
(PID.TID 0000.0001) %MON dynstat_theta_sd             =   0.0000000000000E+00
(PID.TID 0000.0001) %MON dynstat_theta_del2           =   0.0000000000000E+00
(PID.TID 0000.0001) %MON dynstat_salt_max             =   3.0000000000000E+01
(PID.TID 0000.0001) %MON dynstat_salt_min             =   3.0000000000000E+01
(PID.TID 0000.0001) %MON dynstat_salt_mean            =   3.0000000000000E+01
(PID.TID 0000.0001) %MON dynstat_salt_sd              =   0.0000000000000E+00
(PID.TID 0000.0001) %MON dynstat_salt_del2            =   0.0000000000000E+00
(PID.TID 0000.0001) %MON trAdv_CFL_u_max              =   1.9447717276187E-09
(PID.TID 0000.0001) %MON trAdv_CFL_v_max              =   3.0367082060510E-09
(PID.TID 0000.0001) %MON trAdv_CFL_w_max              =   9.4802371288227E-15
(PID.TID 0000.0001) %MON advcfl_uvel_max              =   1.9577060426227E-09
(PID.TID 0000.0001) %MON advcfl_vvel_max              =   3.0289058027177E-09
(PID.TID 0000.0001) %MON advcfl_wvel_max              =   1.8900364814423E-14
(PID.TID 0000.0001) %MON advcfl_W_hf_max              =   0.0000000000000E+00
(PID.TID 0000.0001) %MON pe_b_mean                    =   1.5916134778413E-21
(PID.TID 0000.0001) %MON ke_max                       =   3.9526136647863E-18
(PID.TID 0000.0001) %MON ke_mean                      =   6.1874837025714E-19
(PID.TID 0000.0001) %MON ke_vol                       =   7.5645000000000E+15
(PID.TID 0000.0001) %MON vort_r_min                   =  -1.1098280729437E-13
(PID.TID 0000.0001) %MON vort_r_max                   =   1.0862232233879E-13
(PID.TID 0000.0001) %MON vort_a_mean                  =   8.2300000000000E-05
(PID.TID 0000.0001) %MON vort_a_sd                    =   7.1297555115580E-06
(PID.TID 0000.0001) %MON vort_p_mean                  =   8.3303658536585E-05
(PID.TID 0000.0001) %MON vort_p_sd                    =   1.7411470229650E-05
(PID.TID 0000.0001) %MON surfExpan_theta_mean         =  -1.3488645564898E-27
(PID.TID 0000.0001) %MON surfExpan_salt_mean          =  -2.0686163726741E-27
(PID.TID 0000.0001) // =======================================================
(PID.TID 0000.0001) // End MONITOR dynamic field statistics
(PID.TID 0000.0001) // =======================================================
 cg2d: Sum(rhs),rhsMax =  -1.75045423705243E-02  2.32428049571797E-10
 cg2d: Sum(rhs),rhsMax =  -1.76525159490693E-02  2.30479701601034E-10
 cg2d: Sum(rhs),rhsMax =  -1.78051113796869E-02  2.28504416414079E-10
 cg2d: Sum(rhs),rhsMax =  -1.78694532895207E-02  2.27681647206900E-10
 cg2d: Sum(rhs),rhsMax =  -1.78228708479959E-02  2.28276722004867E-10
 cg2d: Sum(rhs),rhsMax =  -1.77791814671174E-02  2.28837672701104E-10
 cg2d: Sum(rhs),rhsMax =  -1.77340648465749E-02  2.29419849449614E-10
 cg2d: Sum(rhs),rhsMax =  -1.76913260878486E-02  2.29974081249841E-10
 cg2d: Sum(rhs),rhsMax =  -1.76514211833208E-02  2.30493986678695E-10
 cg2d: Sum(rhs),rhsMax =  -1.76143227218596E-02  2.30979441150747E-10
 cg2d: Sum(rhs),rhsMax =  -1.75762349557970E-02  2.31479973323765E-10
 cg2d: Sum(rhs),rhsMax =  -1.75399621680687E-02  2.31958674654143E-10
 cg2d: Sum(rhs),rhsMax =  -1.75064455782023E-02  2.32402764822833E-10
 cg2d: Sum(rhs),rhsMax =  -1.74756624675056E-02  2.32812137339389E-10
 cg2d: Sum(rhs),rhsMax =  -1.74439069908286E-02  2.33235954953377E-10
 cg2d: Sum(rhs),rhsMax =  -1.74138449217358E-02  2.33638596067925E-10
(PID.TID 0000.0001)      cg2d_init_res =   3.35290661818548E-01
(PID.TID 0000.0001)      cg2d_iters(min,last) =      -1     550
(PID.TID 0000.0001)      cg2d_last_res =   9.56732828336616E-08
(PID.TID 0000.0001) // =======================================================
(PID.TID 0000.0001) // Begin MONITOR dynamic field statistics
(PID.TID 0000.0001) // =======================================================
(PID.TID 0000.0001) %MON time_tsnumber                =                  4000
(PID.TID 0000.0001) %MON time_secondsf                =   2.1600000000000E+07
(PID.TID 0000.0001) %MON dynstat_eta_max              =   3.4779137437391E-09
(PID.TID 0000.0001) %MON dynstat_eta_min              =  -2.0600669298023E-09
(PID.TID 0000.0001) %MON dynstat_eta_mean             =   3.9209071565437E-13
(PID.TID 0000.0001) %MON dynstat_eta_sd               =   1.2586644203663E-09
(PID.TID 0000.0001) %MON dynstat_eta_del2             =   1.0074877489039E-14
(PID.TID 0000.0001) %MON dynstat_uvel_max             =   1.2860417816289E-09
(PID.TID 0000.0001) %MON dynstat_uvel_min             =  -1.9850133442274E-09
(PID.TID 0000.0001) %MON dynstat_uvel_mean            =  -1.2407665789471E-13
(PID.TID 0000.0001) %MON dynstat_uvel_sd              =   5.1755778295959E-10
(PID.TID 0000.0001) %MON dynstat_uvel_del2            =   4.2100016979897E-14
(PID.TID 0000.0001) %MON dynstat_vvel_max             =   2.6635319444513E-09
(PID.TID 0000.0001) %MON dynstat_vvel_min             =  -2.1592842617224E-09
(PID.TID 0000.0001) %MON dynstat_vvel_mean            =  -1.5738252350176E-14
(PID.TID 0000.0001) %MON dynstat_vvel_sd              =   9.7942730234022E-10
(PID.TID 0000.0001) %MON dynstat_vvel_del2            =   4.1240570961512E-14
(PID.TID 0000.0001) %MON dynstat_wvel_max             =   8.2494906050723E-15
(PID.TID 0000.0001) %MON dynstat_wvel_min             =  -5.4794106077449E-15
(PID.TID 0000.0001) %MON dynstat_wvel_mean            =  -1.9456373112496E-31
(PID.TID 0000.0001) %MON dynstat_wvel_sd              =   3.3423261698478E-15
(PID.TID 0000.0001) %MON dynstat_wvel_del2            =   1.9454308245755E-20
(PID.TID 0000.0001) %MON dynstat_theta_max            =   2.0000000000000E+01
(PID.TID 0000.0001) %MON dynstat_theta_min            =   2.0000000000000E+01
(PID.TID 0000.0001) %MON dynstat_theta_mean           =   2.0000000000000E+01
(PID.TID 0000.0001) %MON dynstat_theta_sd             =   0.0000000000000E+00
(PID.TID 0000.0001) %MON dynstat_theta_del2           =   0.0000000000000E+00
(PID.TID 0000.0001) %MON dynstat_salt_max             =   3.0000000000000E+01
(PID.TID 0000.0001) %MON dynstat_salt_min             =   3.0000000000000E+01
(PID.TID 0000.0001) %MON dynstat_salt_mean            =   3.0000000000000E+01
(PID.TID 0000.0001) %MON dynstat_salt_sd              =   0.0000000000000E+00
(PID.TID 0000.0001) %MON dynstat_salt_del2            =   0.0000000000000E+00
(PID.TID 0000.0001) %MON trAdv_CFL_u_max              =   2.1335358965647E-09
(PID.TID 0000.0001) %MON trAdv_CFL_v_max              =   2.8871035738087E-09
(PID.TID 0000.0001) %MON trAdv_CFL_w_max              =   8.9458850762170E-15
(PID.TID 0000.0001) %MON advcfl_uvel_max              =   2.1438144117656E-09
(PID.TID 0000.0001) %MON advcfl_vvel_max              =   2.8766145000075E-09
(PID.TID 0000.0001) %MON advcfl_wvel_max              =   1.7818899706956E-14
(PID.TID 0000.0001) %MON advcfl_W_hf_max              =   0.0000000000000E+00
(PID.TID 0000.0001) %MON pe_b_mean                    =   1.5541357875714E-21
(PID.TID 0000.0001) %MON ke_max                       =   3.5829397926183E-18
(PID.TID 0000.0001) %MON ke_mean                      =   6.1107776250808E-19
(PID.TID 0000.0001) %MON ke_vol                       =   7.5645000000000E+15
(PID.TID 0000.0001) %MON vort_r_min                   =  -9.8302093186096E-14
(PID.TID 0000.0001) %MON vort_r_max                   =   1.1449686745045E-13
(PID.TID 0000.0001) %MON vort_a_mean                  =   8.2300000000001E-05
(PID.TID 0000.0001) %MON vort_a_sd                    =   7.1297555115522E-06
(PID.TID 0000.0001) %MON vort_p_mean                  =   8.3303658536586E-05
(PID.TID 0000.0001) %MON vort_p_sd                    =   1.7411470229678E-05
(PID.TID 0000.0001) %MON surfExpan_theta_mean         =  -2.2751028385634E-29
(PID.TID 0000.0001) %MON surfExpan_salt_mean          =  -5.5337918240872E-29
(PID.TID 0000.0001) // =======================================================
(PID.TID 0000.0001) // End MONITOR dynamic field statistics
(PID.TID 0000.0001) // =======================================================
 cg2d: Sum(rhs),rhsMax =  -1.73864742065340E-02  2.34006400879396E-10
 cg2d: Sum(rhs),rhsMax =  -1.73617765376110E-02  2.34339280848807E-10
 cg2d: Sum(rhs),rhsMax =  -1.73357147864895E-02  2.34691574752892E-10
 cg2d: Sum(rhs),rhsMax =  -1.73116509659678E-02  2.35017802987010E-10
 cg2d: Sum(rhs),rhsMax =  -1.72902253683199E-02  2.35309029258437E-10
 cg2d: Sum(rhs),rhsMax =  -1.72713148743589E-02  2.35566669223712E-10
 cg2d: Sum(rhs),rhsMax =  -1.72504670269560E-02  2.35851358762192E-10
 cg2d: Sum(rhs),rhsMax =  -1.72322271794005E-02  2.36100999380775E-10
 cg2d: Sum(rhs),rhsMax =  -1.72165832752525E-02  2.36315531546392E-10
 cg2d: Sum(rhs),rhsMax =  -1.72022552204860E-02  2.36512360913447E-10
 cg2d: Sum(rhs),rhsMax =  -1.71871274856282E-02  2.36720532025280E-10
 cg2d: Sum(rhs),rhsMax =  -1.71745717175235E-02  2.36893588643396E-10
 cg2d: Sum(rhs),rhsMax =  -1.71645797561041E-02  2.37031489009350E-10
 cg2d: Sum(rhs),rhsMax =  -1.71543243431422E-02  2.37173192430003E-10
 cg2d: Sum(rhs),rhsMax =  -1.71447983449895E-02  2.37304968833106E-10
 cg2d: Sum(rhs),rhsMax =  -1.71378179486110E-02  2.37401623418232E-10
(PID.TID 0000.0001)      cg2d_init_res =   3.30274030667214E-01
(PID.TID 0000.0001)      cg2d_iters(min,last) =      -1     551
(PID.TID 0000.0001)      cg2d_last_res =   9.38863476119769E-08
(PID.TID 0000.0001) // =======================================================
(PID.TID 0000.0001) // Begin MONITOR dynamic field statistics
(PID.TID 0000.0001) // =======================================================
(PID.TID 0000.0001) %MON time_tsnumber                =                  4016
(PID.TID 0000.0001) %MON time_secondsf                =   2.1686400000000E+07
(PID.TID 0000.0001) %MON dynstat_eta_max              =   3.5078280624842E-09
(PID.TID 0000.0001) %MON dynstat_eta_min              =  -1.8695662002535E-09
(PID.TID 0000.0001) %MON dynstat_eta_mean             =   3.9209066892171E-13
(PID.TID 0000.0001) %MON dynstat_eta_sd               =   1.2473114539508E-09
(PID.TID 0000.0001) %MON dynstat_eta_del2             =   9.9038837775357E-15
(PID.TID 0000.0001) %MON dynstat_uvel_max             =   1.2301108227248E-09
(PID.TID 0000.0001) %MON dynstat_uvel_min             =  -2.1191430723750E-09
(PID.TID 0000.0001) %MON dynstat_uvel_mean            =  -1.3485066423827E-13
(PID.TID 0000.0001) %MON dynstat_uvel_sd              =   5.2493752583833E-10
(PID.TID 0000.0001) %MON dynstat_uvel_del2            =   4.1480003785068E-14
(PID.TID 0000.0001) %MON dynstat_vvel_max             =   2.4854474842616E-09
(PID.TID 0000.0001) %MON dynstat_vvel_min             =  -2.3097025633415E-09
(PID.TID 0000.0001) %MON dynstat_vvel_mean            =  -1.2033606076133E-14
(PID.TID 0000.0001) %MON dynstat_vvel_sd              =   9.6786328079239E-10
(PID.TID 0000.0001) %MON dynstat_vvel_del2            =   3.9409328800222E-14
(PID.TID 0000.0001) %MON dynstat_wvel_max             =   7.6566886428320E-15
(PID.TID 0000.0001) %MON dynstat_wvel_min             =  -6.2198539965697E-15
(PID.TID 0000.0001) %MON dynstat_wvel_mean            =   1.6908594932493E-28
(PID.TID 0000.0001) %MON dynstat_wvel_sd              =   3.3217590775006E-15
(PID.TID 0000.0001) %MON dynstat_wvel_del2            =   1.9436603925379E-20
(PID.TID 0000.0001) %MON dynstat_theta_max            =   2.0000000000000E+01
(PID.TID 0000.0001) %MON dynstat_theta_min            =   2.0000000000000E+01
(PID.TID 0000.0001) %MON dynstat_theta_mean           =   2.0000000000000E+01
(PID.TID 0000.0001) %MON dynstat_theta_sd             =   0.0000000000000E+00
(PID.TID 0000.0001) %MON dynstat_theta_del2           =   0.0000000000000E+00
(PID.TID 0000.0001) %MON dynstat_salt_max             =   3.0000000000000E+01
(PID.TID 0000.0001) %MON dynstat_salt_min             =   3.0000000000000E+01
(PID.TID 0000.0001) %MON dynstat_salt_mean            =   3.0000000000000E+01
(PID.TID 0000.0001) %MON dynstat_salt_sd              =   0.0000000000000E+00
(PID.TID 0000.0001) %MON dynstat_salt_del2            =   0.0000000000000E+00
(PID.TID 0000.0001) %MON trAdv_CFL_u_max              =   2.2807596575261E-09
(PID.TID 0000.0001) %MON trAdv_CFL_v_max              =   2.6972623163494E-09
(PID.TID 0000.0001) %MON trAdv_CFL_w_max              =   8.3113493285714E-15
(PID.TID 0000.0001) %MON advcfl_uvel_max              =   2.2886745181650E-09
(PID.TID 0000.0001) %MON advcfl_vvel_max              =   2.6842832830026E-09
(PID.TID 0000.0001) %MON advcfl_wvel_max              =   1.6538447468517E-14
(PID.TID 0000.0001) %MON advcfl_W_hf_max              =   0.0000000000000E+00
(PID.TID 0000.0001) %MON pe_b_mean                    =   1.5262260825710E-21
(PID.TID 0000.0001) %MON ke_max                       =   3.1433062561413E-18
(PID.TID 0000.0001) %MON ke_mean                      =   6.0369531482500E-19
(PID.TID 0000.0001) %MON ke_vol                       =   7.5645000000000E+15
(PID.TID 0000.0001) %MON vort_r_min                   =  -8.2862277851907E-14
(PID.TID 0000.0001) %MON vort_r_max                   =   1.1794576173102E-13
(PID.TID 0000.0001) %MON vort_a_mean                  =   8.2300000000000E-05
(PID.TID 0000.0001) %MON vort_a_sd                    =   7.1297555115512E-06
(PID.TID 0000.0001) %MON vort_p_mean                  =   8.3303658536586E-05
(PID.TID 0000.0001) %MON vort_p_sd                    =   1.7411470229704E-05
(PID.TID 0000.0001) %MON surfExpan_theta_mean         =   3.3877891463021E-27
(PID.TID 0000.0001) %MON surfExpan_salt_mean          =   5.0686800924897E-27
(PID.TID 0000.0001) // =======================================================
(PID.TID 0000.0001) // End MONITOR dynamic field statistics
(PID.TID 0000.0001) // =======================================================
 cg2d: Sum(rhs),rhsMax =  -1.71332645629328E-02  2.37464713959151E-10
 cg2d: Sum(rhs),rhsMax =  -1.71267197893155E-02  2.37555456306361E-10
 cg2d: Sum(rhs),rhsMax =  -1.71227059999154E-02  2.37611140317130E-10
 cg2d: Sum(rhs),rhsMax =  -1.71212205964194E-02  2.37631752723055E-10
 cg2d: Sum(rhs),rhsMax =  -1.71198376044975E-02  2.37650947129974E-10
 cg2d: Sum(rhs),rhsMax =  -1.71187540044443E-02  2.37665987685443E-10
 cg2d: Sum(rhs),rhsMax =  -1.71201893443006E-02  2.37646059471296E-10
 cg2d: Sum(rhs),rhsMax =  -1.71236959543305E-02  2.37597391213557E-10
 cg2d: Sum(rhs),rhsMax =  -1.71255137372494E-02  2.37572168564657E-10
 cg2d: Sum(rhs),rhsMax =  -1.71298440830249E-02  2.37512108166599E-10
 cg2d: Sum(rhs),rhsMax =  -1.71366897715091E-02  2.37417224538796E-10
 cg2d: Sum(rhs),rhsMax =  -1.71425771768375E-02  2.37335682801561E-10
 cg2d: Sum(rhs),rhsMax =  -1.71497833512364E-02  2.37235952569972E-10
 cg2d: Sum(rhs),rhsMax =  -1.71595031882562E-02  2.37101568099231E-10
 cg2d: Sum(rhs),rhsMax =  -1.71695755950699E-02  2.36962469289020E-10
 cg2d: Sum(rhs),rhsMax =  -1.71796441107581E-02  2.36823586627922E-10
(PID.TID 0000.0001)      cg2d_init_res =   3.31061281411815E-01
(PID.TID 0000.0001)      cg2d_iters(min,last) =      -1     551
(PID.TID 0000.0001)      cg2d_last_res =   9.58668009804341E-08
(PID.TID 0000.0001) // =======================================================
(PID.TID 0000.0001) // Begin MONITOR dynamic field statistics
(PID.TID 0000.0001) // =======================================================
(PID.TID 0000.0001) %MON time_tsnumber                =                  4032
(PID.TID 0000.0001) %MON time_secondsf                =   2.1772800000000E+07
(PID.TID 0000.0001) %MON dynstat_eta_max              =   3.4741519701699E-09
(PID.TID 0000.0001) %MON dynstat_eta_min              =  -1.6595670970967E-09
(PID.TID 0000.0001) %MON dynstat_eta_mean             =   3.9209057825272E-13
(PID.TID 0000.0001) %MON dynstat_eta_sd               =   1.2400144767619E-09
(PID.TID 0000.0001) %MON dynstat_eta_del2             =   9.7194064383101E-15
(PID.TID 0000.0001) %MON dynstat_uvel_max             =   1.2195251874603E-09
(PID.TID 0000.0001) %MON dynstat_uvel_min             =  -2.2137257634913E-09
(PID.TID 0000.0001) %MON dynstat_uvel_mean            =  -1.3766597975640E-13
(PID.TID 0000.0001) %MON dynstat_uvel_sd              =   5.2833809229015E-10
(PID.TID 0000.0001) %MON dynstat_uvel_del2            =   4.0583454059746E-14
(PID.TID 0000.0001) %MON dynstat_vvel_max             =   2.2758538419607E-09
(PID.TID 0000.0001) %MON dynstat_vvel_min             =  -2.4323640202502E-09
(PID.TID 0000.0001) %MON dynstat_vvel_mean            =  -8.1564189374665E-15
(PID.TID 0000.0001) %MON dynstat_vvel_sd              =   9.5861769079850E-10
(PID.TID 0000.0001) %MON dynstat_vvel_del2            =   3.7922677363943E-14
(PID.TID 0000.0001) %MON dynstat_wvel_max             =   7.1123131431539E-15
(PID.TID 0000.0001) %MON dynstat_wvel_min             =  -6.8722156965073E-15
(PID.TID 0000.0001) %MON dynstat_wvel_mean            =   5.8611343102641E-30
(PID.TID 0000.0001) %MON dynstat_wvel_sd              =   3.2922494432273E-15
(PID.TID 0000.0001) %MON dynstat_wvel_del2            =   1.9446136059982E-20
(PID.TID 0000.0001) %MON dynstat_theta_max            =   2.0000000000000E+01
(PID.TID 0000.0001) %MON dynstat_theta_min            =   2.0000000000000E+01
(PID.TID 0000.0001) %MON dynstat_theta_mean           =   2.0000000000000E+01
(PID.TID 0000.0001) %MON dynstat_theta_sd             =   0.0000000000000E+00
(PID.TID 0000.0001) %MON dynstat_theta_del2           =   0.0000000000000E+00
(PID.TID 0000.0001) %MON dynstat_salt_max             =   3.0000000000000E+01
(PID.TID 0000.0001) %MON dynstat_salt_min             =   3.0000000000000E+01
(PID.TID 0000.0001) %MON dynstat_salt_mean            =   3.0000000000000E+01
(PID.TID 0000.0001) %MON dynstat_salt_sd              =   0.0000000000000E+00
(PID.TID 0000.0001) %MON dynstat_salt_del2            =   0.0000000000000E+00
(PID.TID 0000.0001) %MON trAdv_CFL_u_max              =   2.3857648824562E-09
(PID.TID 0000.0001) %MON trAdv_CFL_v_max              =   2.6195519535939E-09
(PID.TID 0000.0001) %MON trAdv_CFL_w_max              =   7.7129614481253E-15
(PID.TID 0000.0001) %MON advcfl_uvel_max              =   2.3908238245706E-09
(PID.TID 0000.0001) %MON advcfl_vvel_max              =   2.6269531418702E-09
(PID.TID 0000.0001) %MON advcfl_wvel_max              =   1.5362596389212E-14
(PID.TID 0000.0001) %MON advcfl_W_hf_max              =   0.0000000000000E+00
(PID.TID 0000.0001) %MON pe_b_mean                    =   1.5084209712442E-21
(PID.TID 0000.0001) %MON ke_max                       =   3.0249909458045E-18
(PID.TID 0000.0001) %MON ke_mean                      =   5.9660937763069E-19
(PID.TID 0000.0001) %MON ke_vol                       =   7.5645000000000E+15
(PID.TID 0000.0001) %MON vort_r_min                   =  -6.5484214358749E-14
(PID.TID 0000.0001) %MON vort_r_max                   =   1.1908376488521E-13
(PID.TID 0000.0001) %MON vort_a_mean                  =   8.2300000000000E-05
(PID.TID 0000.0001) %MON vort_a_sd                    =   7.1297555115542E-06
(PID.TID 0000.0001) %MON vort_p_mean                  =   8.3303658536586E-05
(PID.TID 0000.0001) %MON vort_p_sd                    =   1.7411470229727E-05
(PID.TID 0000.0001) %MON surfExpan_theta_mean         =   1.1705586868185E-28
(PID.TID 0000.0001) %MON surfExpan_salt_mean          =   1.6863017582505E-28
(PID.TID 0000.0001) // =======================================================
(PID.TID 0000.0001) // End MONITOR dynamic field statistics
(PID.TID 0000.0001) // =======================================================
 cg2d: Sum(rhs),rhsMax =  -1.71922273547777E-02  2.36650245717424E-10
 cg2d: Sum(rhs),rhsMax =  -1.72061790854542E-02  2.36458349457818E-10
 cg2d: Sum(rhs),rhsMax =  -1.72191013823040E-02  2.36280887836217E-10
 cg2d: Sum(rhs),rhsMax =  -1.72345420390394E-02  2.36069190366147E-10
 cg2d: Sum(rhs),rhsMax =  -1.72520963492876E-02  2.35828972707882E-10
 cg2d: Sum(rhs),rhsMax =  -1.72678677730010E-02  2.35613562439108E-10
 cg2d: Sum(rhs),rhsMax =  -1.72861630216987E-02  2.35364164616226E-10
 cg2d: Sum(rhs),rhsMax =  -1.73069907479760E-02  2.35080840388327E-10
 cg2d: Sum(rhs),rhsMax =  -1.73257014901095E-02  2.34827093202341E-10
 cg2d: Sum(rhs),rhsMax =  -1.73468591685247E-02  2.34540708142310E-10
 cg2d: Sum(rhs),rhsMax =  -1.73705624118213E-02  2.34220679695003E-10
 cg2d: Sum(rhs),rhsMax =  -1.73923939750424E-02  2.33926690002780E-10
 cg2d: Sum(rhs),rhsMax =  -1.74164131896713E-02  2.33604088312605E-10
 cg2d: Sum(rhs),rhsMax =  -1.74429913118441E-02  2.33248150592985E-10
 cg2d: Sum(rhs),rhsMax =  -1.74677731286198E-02  2.32917244508714E-10
 cg2d: Sum(rhs),rhsMax =  -1.74946626008261E-02  2.32559254491199E-10
(PID.TID 0000.0001)      cg2d_init_res =   3.36305920834237E-01
(PID.TID 0000.0001)      cg2d_iters(min,last) =      -1     552
(PID.TID 0000.0001)      cg2d_last_res =   9.58996338483194E-08
(PID.TID 0000.0001) // =======================================================
(PID.TID 0000.0001) // Begin MONITOR dynamic field statistics
(PID.TID 0000.0001) // =======================================================
(PID.TID 0000.0001) %MON time_tsnumber                =                  4048
(PID.TID 0000.0001) %MON time_secondsf                =   2.1859200000000E+07
(PID.TID 0000.0001) %MON dynstat_eta_max              =   3.3772165032896E-09
(PID.TID 0000.0001) %MON dynstat_eta_min              =  -1.7844942092323E-09
(PID.TID 0000.0001) %MON dynstat_eta_mean             =   3.9209067057960E-13
(PID.TID 0000.0001) %MON dynstat_eta_sd               =   1.2363028357340E-09
(PID.TID 0000.0001) %MON dynstat_eta_del2             =   9.5343334028215E-15
(PID.TID 0000.0001) %MON dynstat_uvel_max             =   1.1824511192779E-09
(PID.TID 0000.0001) %MON dynstat_uvel_min             =  -2.2647507995242E-09
(PID.TID 0000.0001) %MON dynstat_uvel_mean            =  -1.3250133400691E-13
(PID.TID 0000.0001) %MON dynstat_uvel_sd              =   5.2644574228675E-10
(PID.TID 0000.0001) %MON dynstat_uvel_del2            =   3.9604835540336E-14
(PID.TID 0000.0001) %MON dynstat_vvel_max             =   2.0540805703474E-09
(PID.TID 0000.0001) %MON dynstat_vvel_min             =  -2.5222389232305E-09
(PID.TID 0000.0001) %MON dynstat_vvel_mean            =  -4.2599138864912E-15
(PID.TID 0000.0001) %MON dynstat_vvel_sd              =   9.5251527472307E-10
(PID.TID 0000.0001) %MON dynstat_vvel_del2            =   3.6741703997275E-14
(PID.TID 0000.0001) %MON dynstat_wvel_max             =   6.6443947185912E-15
(PID.TID 0000.0001) %MON dynstat_wvel_min             =  -7.4191446730598E-15
(PID.TID 0000.0001) %MON dynstat_wvel_mean            =  -3.7887412579200E-28
(PID.TID 0000.0001) %MON dynstat_wvel_sd              =   3.2549567425236E-15
(PID.TID 0000.0001) %MON dynstat_wvel_del2            =   1.9450042284511E-20
(PID.TID 0000.0001) %MON dynstat_theta_max            =   2.0000000000000E+01
(PID.TID 0000.0001) %MON dynstat_theta_min            =   2.0000000000000E+01
(PID.TID 0000.0001) %MON dynstat_theta_mean           =   2.0000000000000E+01
(PID.TID 0000.0001) %MON dynstat_theta_sd             =   0.0000000000000E+00
(PID.TID 0000.0001) %MON dynstat_theta_del2           =   0.0000000000000E+00
(PID.TID 0000.0001) %MON dynstat_salt_max             =   3.0000000000000E+01
(PID.TID 0000.0001) %MON dynstat_salt_min             =   3.0000000000000E+01
(PID.TID 0000.0001) %MON dynstat_salt_mean            =   3.0000000000000E+01
(PID.TID 0000.0001) %MON dynstat_salt_sd              =   0.0000000000000E+00
(PID.TID 0000.0001) %MON dynstat_salt_del2            =   0.0000000000000E+00
(PID.TID 0000.0001) %MON trAdv_CFL_u_max              =   2.4436184696206E-09
(PID.TID 0000.0001) %MON trAdv_CFL_v_max              =   2.7193396933000E-09
(PID.TID 0000.0001) %MON trAdv_CFL_w_max              =   7.2085916018372E-15
(PID.TID 0000.0001) %MON advcfl_uvel_max              =   2.4459308634862E-09
(PID.TID 0000.0001) %MON advcfl_vvel_max              =   2.7240180370890E-09
(PID.TID 0000.0001) %MON advcfl_wvel_max              =   1.6025352493809E-14
(PID.TID 0000.0001) %MON advcfl_W_hf_max              =   0.0000000000000E+00
(PID.TID 0000.0001) %MON pe_b_mean                    =   1.4994044031269E-21
(PID.TID 0000.0001) %MON ke_max                       =   3.2299043156037E-18
(PID.TID 0000.0001) %MON ke_mean                      =   5.8980786382766E-19
(PID.TID 0000.0001) %MON ke_vol                       =   7.5645000000000E+15
(PID.TID 0000.0001) %MON vort_r_min                   =  -5.4083263815790E-14
(PID.TID 0000.0001) %MON vort_r_max                   =   1.1816528720087E-13
(PID.TID 0000.0001) %MON vort_a_mean                  =   8.2299999999999E-05
(PID.TID 0000.0001) %MON vort_a_sd                    =   7.1297555115705E-06
(PID.TID 0000.0001) %MON vort_p_mean                  =   8.3303658536584E-05
(PID.TID 0000.0001) %MON vort_p_sd                    =   1.7411470229749E-05
(PID.TID 0000.0001) %MON surfExpan_theta_mean         =  -7.5765661055812E-27
(PID.TID 0000.0001) %MON surfExpan_salt_mean          =  -1.1362790782649E-26
(PID.TID 0000.0001) // =======================================================
(PID.TID 0000.0001) // End MONITOR dynamic field statistics
(PID.TID 0000.0001) // =======================================================
 cg2d: Sum(rhs),rhsMax =  -1.75241257991862E-02  2.32168259489381E-10
 cg2d: Sum(rhs),rhsMax =  -1.75517176254218E-02  2.31803288823858E-10
 cg2d: Sum(rhs),rhsMax =  -1.75814871616129E-02  2.31410796577507E-10
 cg2d: Sum(rhs),rhsMax =  -1.76138472862845E-02  2.30985653364616E-10
 cg2d: Sum(rhs),rhsMax =  -1.76441495952849E-02  2.30588959101496E-10
 cg2d: Sum(rhs),rhsMax =  -1.76768106722018E-02  2.30162908340899E-10
 cg2d: Sum(rhs),rhsMax =  -1.77120811589336E-02  2.29704582875557E-10
 cg2d: Sum(rhs),rhsMax =  -1.77450383598376E-02  2.29277964419934E-10
 cg2d: Sum(rhs),rhsMax =  -1.77806038681286E-02  2.28819356056145E-10
 cg2d: Sum(rhs),rhsMax =  -1.78185484341151E-02  2.28332088557224E-10
 cg2d: Sum(rhs),rhsMax =  -1.78544031050181E-02  2.27873561400020E-10
 cg2d: Sum(rhs),rhsMax =  -1.78928871602012E-02  2.27383452818222E-10
 cg2d: Sum(rhs),rhsMax =  -1.79335501373563E-02  2.26867880106129E-10
 cg2d: Sum(rhs),rhsMax =  -1.79723158691137E-02  2.26378535176916E-10
 cg2d: Sum(rhs),rhsMax =  -1.80137337129017E-02  2.25858039410508E-10
 cg2d: Sum(rhs),rhsMax =  -1.80572133526504E-02  2.25314201799855E-10
(PID.TID 0000.0001)      cg2d_init_res =   3.45177844165284E-01
(PID.TID 0000.0001)      cg2d_iters(min,last) =      -1     553
(PID.TID 0000.0001)      cg2d_last_res =   8.71512389068625E-08
(PID.TID 0000.0001) // =======================================================
(PID.TID 0000.0001) // Begin MONITOR dynamic field statistics
(PID.TID 0000.0001) // =======================================================
(PID.TID 0000.0001) %MON time_tsnumber                =                  4064
(PID.TID 0000.0001) %MON time_secondsf                =   2.1945600000000E+07
(PID.TID 0000.0001) %MON dynstat_eta_max              =   3.2200755506502E-09
(PID.TID 0000.0001) %MON dynstat_eta_min              =  -2.0619725073238E-09
(PID.TID 0000.0001) %MON dynstat_eta_mean             =   3.9209075378156E-13
(PID.TID 0000.0001) %MON dynstat_eta_sd               =   1.2350152963732E-09
(PID.TID 0000.0001) %MON dynstat_eta_del2             =   9.3613681897725E-15
(PID.TID 0000.0001) %MON dynstat_uvel_max             =   1.1201273285795E-09
(PID.TID 0000.0001) %MON dynstat_uvel_min             =  -2.2751447093568E-09
(PID.TID 0000.0001) %MON dynstat_uvel_mean            =  -1.1978191156958E-13
(PID.TID 0000.0001) %MON dynstat_uvel_sd              =   5.1915815534874E-10
(PID.TID 0000.0001) %MON dynstat_uvel_del2            =   3.8752802128696E-14
(PID.TID 0000.0001) %MON dynstat_vvel_max             =   2.0390405404348E-09
(PID.TID 0000.0001) %MON dynstat_vvel_min             =  -2.5776123258353E-09
(PID.TID 0000.0001) %MON dynstat_vvel_mean            =  -4.9440064151011E-16
(PID.TID 0000.0001) %MON dynstat_vvel_sd              =   9.4961085978024E-10
(PID.TID 0000.0001) %MON dynstat_vvel_del2            =   3.5770636152468E-14
(PID.TID 0000.0001) %MON dynstat_wvel_max             =   6.1540247994762E-15
(PID.TID 0000.0001) %MON dynstat_wvel_min             =  -7.8430374123029E-15
(PID.TID 0000.0001) %MON dynstat_wvel_mean            =  -3.6022719660116E-28
(PID.TID 0000.0001) %MON dynstat_wvel_sd              =   3.2128077323591E-15
(PID.TID 0000.0001) %MON dynstat_wvel_del2            =   1.9421807457983E-20
(PID.TID 0000.0001) %MON dynstat_theta_max            =   2.0000000000000E+01
(PID.TID 0000.0001) %MON dynstat_theta_min            =   2.0000000000000E+01
(PID.TID 0000.0001) %MON dynstat_theta_mean           =   2.0000000000000E+01
(PID.TID 0000.0001) %MON dynstat_theta_sd             =   0.0000000000000E+00
(PID.TID 0000.0001) %MON dynstat_theta_del2           =   0.0000000000000E+00
(PID.TID 0000.0001) %MON dynstat_salt_max             =   3.0000000000000E+01
(PID.TID 0000.0001) %MON dynstat_salt_min             =   3.0000000000000E+01
(PID.TID 0000.0001) %MON dynstat_salt_mean            =   3.0000000000000E+01
(PID.TID 0000.0001) %MON dynstat_salt_sd              =   0.0000000000000E+00
(PID.TID 0000.0001) %MON dynstat_salt_del2            =   0.0000000000000E+00
(PID.TID 0000.0001) %MON trAdv_CFL_u_max              =   2.4574160591630E-09
(PID.TID 0000.0001) %MON trAdv_CFL_v_max              =   2.7808841772049E-09
(PID.TID 0000.0001) %MON trAdv_CFL_w_max              =   6.6808776145288E-15
(PID.TID 0000.0001) %MON advcfl_uvel_max              =   2.4571562861053E-09
(PID.TID 0000.0001) %MON advcfl_vvel_max              =   2.7838213119021E-09
(PID.TID 0000.0001) %MON advcfl_wvel_max              =   1.6940960810574E-14
(PID.TID 0000.0001) %MON advcfl_W_hf_max              =   0.0000000000000E+00
(PID.TID 0000.0001) %MON pe_b_mean                    =   1.4962829402267E-21
(PID.TID 0000.0001) %MON ke_max                       =   3.3565373189014E-18
(PID.TID 0000.0001) %MON ke_mean                      =   5.8326233223228E-19
(PID.TID 0000.0001) %MON ke_vol                       =   7.5645000000000E+15
(PID.TID 0000.0001) %MON vort_r_min                   =  -5.4049730136672E-14
(PID.TID 0000.0001) %MON vort_r_max                   =   1.1556302698866E-13
(PID.TID 0000.0001) %MON vort_a_mean                  =   8.2300000000001E-05
(PID.TID 0000.0001) %MON vort_a_sd                    =   7.1297555115503E-06
(PID.TID 0000.0001) %MON vort_p_mean                  =   8.3303658536586E-05
(PID.TID 0000.0001) %MON vort_p_sd                    =   1.7411470229752E-05
(PID.TID 0000.0001) %MON surfExpan_theta_mean         =  -7.2076205232019E-27
(PID.TID 0000.0001) %MON surfExpan_salt_mean          =  -1.0802683317840E-26
(PID.TID 0000.0001) // =======================================================
(PID.TID 0000.0001) // End MONITOR dynamic field statistics
(PID.TID 0000.0001) // =======================================================
 cg2d: Sum(rhs),rhsMax =  -1.80989046292890E-02  2.24795186884001E-10
 cg2d: Sum(rhs),rhsMax =  -1.81432724658957E-02  2.24245471178507E-10
 cg2d: Sum(rhs),rhsMax =  -1.81897240986622E-02  2.23672810750222E-10
 cg2d: Sum(rhs),rhsMax =  -1.82343564418233E-02  2.23125327247863E-10
 cg2d: Sum(rhs),rhsMax =  -1.82816914961008E-02  2.22547611599362E-10
 cg2d: Sum(rhs),rhsMax =  -1.83313308990572E-02  2.21944976778536E-10
 cg2d: Sum(rhs),rhsMax =  -1.83789209701833E-02  2.21370277780650E-10
 cg2d: Sum(rhs),rhsMax =  -1.84292415810755E-02  2.20765833094871E-10
 cg2d: Sum(rhs),rhsMax =  -1.84823228140695E-02  2.20131795273019E-10
 cg2d: Sum(rhs),rhsMax =  -1.85329141438247E-02  2.19530878861095E-10
 cg2d: Sum(rhs),rhsMax =  -1.85862398838982E-02  2.18901024774476E-10
 cg2d: Sum(rhs),rhsMax =  -1.86423573393552E-02  2.18242087646235E-10
 cg2d: Sum(rhs),rhsMax =  -1.86967219779393E-02  2.17607504603904E-10
 cg2d: Sum(rhs),rhsMax =  -1.87530739662945E-02  2.16953607015714E-10
 cg2d: Sum(rhs),rhsMax =  -1.88122503853482E-02  2.16271152333456E-10
 cg2d: Sum(rhs),rhsMax =  -1.88708047361159E-02  2.15600084592379E-10
(PID.TID 0000.0001)      cg2d_init_res =   3.57556486761341E-01
(PID.TID 0000.0001)      cg2d_iters(min,last) =      -1     553
(PID.TID 0000.0001)      cg2d_last_res =   9.05410037671726E-08
(PID.TID 0000.0001) // =======================================================
(PID.TID 0000.0001) // Begin MONITOR dynamic field statistics
(PID.TID 0000.0001) // =======================================================
(PID.TID 0000.0001) %MON time_tsnumber                =                  4080
(PID.TID 0000.0001) %MON time_secondsf                =   2.2032000000000E+07
(PID.TID 0000.0001) %MON dynstat_eta_max              =   3.1057232732802E-09
(PID.TID 0000.0001) %MON dynstat_eta_min              =  -2.3192186713498E-09
(PID.TID 0000.0001) %MON dynstat_eta_mean             =   3.9209079954593E-13
(PID.TID 0000.0001) %MON dynstat_eta_sd               =   1.2345628118800E-09
(PID.TID 0000.0001) %MON dynstat_eta_del2             =   9.2110765491769E-15
(PID.TID 0000.0001) %MON dynstat_uvel_max             =   1.0434202339096E-09
(PID.TID 0000.0001) %MON dynstat_uvel_min             =  -2.2505021983043E-09
(PID.TID 0000.0001) %MON dynstat_uvel_mean            =  -1.0035025431638E-13
(PID.TID 0000.0001) %MON dynstat_uvel_sd              =   5.0749012478813E-10
(PID.TID 0000.0001) %MON dynstat_uvel_del2            =   3.8201644396255E-14
(PID.TID 0000.0001) %MON dynstat_vvel_max             =   2.0123671099000E-09
(PID.TID 0000.0001) %MON dynstat_vvel_min             =  -2.5958905313067E-09
(PID.TID 0000.0001) %MON dynstat_vvel_mean            =   3.0002077104852E-15
(PID.TID 0000.0001) %MON dynstat_vvel_sd              =   9.4922659972047E-10
(PID.TID 0000.0001) %MON dynstat_vvel_del2            =   3.4891845985575E-14
(PID.TID 0000.0001) %MON dynstat_wvel_max             =   5.6278402590926E-15
(PID.TID 0000.0001) %MON dynstat_wvel_min             =  -8.1353058212219E-15
(PID.TID 0000.0001) %MON dynstat_wvel_mean            =   9.1250923793183E-29
(PID.TID 0000.0001) %MON dynstat_wvel_sd              =   3.1699555015209E-15
(PID.TID 0000.0001) %MON dynstat_wvel_del2            =   1.9351530699045E-20
(PID.TID 0000.0001) %MON dynstat_theta_max            =   2.0000000000000E+01
(PID.TID 0000.0001) %MON dynstat_theta_min            =   2.0000000000000E+01
(PID.TID 0000.0001) %MON dynstat_theta_mean           =   2.0000000000000E+01
(PID.TID 0000.0001) %MON dynstat_theta_sd             =   0.0000000000000E+00
(PID.TID 0000.0001) %MON dynstat_theta_del2           =   0.0000000000000E+00
(PID.TID 0000.0001) %MON dynstat_salt_max             =   3.0000000000000E+01
(PID.TID 0000.0001) %MON dynstat_salt_min             =   3.0000000000000E+01
(PID.TID 0000.0001) %MON dynstat_salt_mean            =   3.0000000000000E+01
(PID.TID 0000.0001) %MON dynstat_salt_sd              =   0.0000000000000E+00
(PID.TID 0000.0001) %MON dynstat_salt_del2            =   0.0000000000000E+00
(PID.TID 0000.0001) %MON trAdv_CFL_u_max              =   2.4331507363117E-09
(PID.TID 0000.0001) %MON trAdv_CFL_v_max              =   2.8037865872453E-09
(PID.TID 0000.0001) %MON trAdv_CFL_w_max              =   6.1144504933219E-15
(PID.TID 0000.0001) %MON advcfl_uvel_max              =   2.4305423741686E-09
(PID.TID 0000.0001) %MON advcfl_vvel_max              =   2.8035617738112E-09
(PID.TID 0000.0001) %MON advcfl_wvel_max              =   1.7572260573839E-14
(PID.TID 0000.0001) %MON advcfl_W_hf_max              =   0.0000000000000E+00
(PID.TID 0000.0001) %MON pe_b_mean                    =   1.4951867258982E-21
(PID.TID 0000.0001) %MON ke_max                       =   3.3925480264149E-18
(PID.TID 0000.0001) %MON ke_mean                      =   5.7693385516487E-19
(PID.TID 0000.0001) %MON ke_vol                       =   7.5645000000000E+15
(PID.TID 0000.0001) %MON vort_r_min                   =  -5.5251242398239E-14
(PID.TID 0000.0001) %MON vort_r_max                   =   1.1158738517079E-13
(PID.TID 0000.0001) %MON vort_a_mean                  =   8.2300000000001E-05
(PID.TID 0000.0001) %MON vort_a_sd                    =   7.1297555115541E-06
(PID.TID 0000.0001) %MON vort_p_mean                  =   8.3303658536586E-05
(PID.TID 0000.0001) %MON vort_p_sd                    =   1.7411470229756E-05
(PID.TID 0000.0001) %MON surfExpan_theta_mean         =   1.8302988464482E-27
(PID.TID 0000.0001) %MON surfExpan_salt_mean          =   2.7800252306566E-27
(PID.TID 0000.0001) // =======================================================
(PID.TID 0000.0001) // End MONITOR dynamic field statistics
(PID.TID 0000.0001) // =======================================================
 cg2d: Sum(rhs),rhsMax =  -1.89302059670488E-02  2.14923552921029E-10
 cg2d: Sum(rhs),rhsMax =  -1.89924659014335E-02  2.14219005068615E-10
 cg2d: Sum(rhs),rhsMax =  -1.90557011946882E-02  2.13508132413437E-10
 cg2d: Sum(rhs),rhsMax =  -1.91181769553816E-02  2.12810416483105E-10
 cg2d: Sum(rhs),rhsMax =  -1.91835473177389E-02  2.12085239446393E-10
 cg2d: Sum(rhs),rhsMax =  -1.92518509552630E-02  2.11332783575286E-10
 cg2d: Sum(rhs),rhsMax =  -1.93176118273332E-02  2.10613367191468E-10
 cg2d: Sum(rhs),rhsMax =  -1.93861223576306E-02  2.09869061155652E-10
 cg2d: Sum(rhs),rhsMax =  -1.94576052906260E-02  2.09098049909878E-10
 cg2d: Sum(rhs),rhsMax =  -1.95292243644458E-02  2.08331230740065E-10
 cg2d: Sum(rhs),rhsMax =  -1.96009082823248E-02  2.07569328459036E-10
 cg2d: Sum(rhs),rhsMax =  -1.96756054018149E-02  2.06781306700433E-10
 cg2d: Sum(rhs),rhsMax =  -1.97533597930390E-02  2.05967362589240E-10
 cg2d: Sum(rhs),rhsMax =  -1.98287175223014E-02  2.05184598393333E-10
 cg2d: Sum(rhs),rhsMax =  -1.99066679420935E-02  2.04381138771565E-10
 cg2d: Sum(rhs),rhsMax =  -1.99877197155568E-02  2.03552358242317E-10
(PID.TID 0000.0001)      cg2d_init_res =   3.74382670453698E-01
(PID.TID 0000.0001)      cg2d_iters(min,last) =      -1     553
(PID.TID 0000.0001)      cg2d_last_res =   8.93975450519167E-08
(PID.TID 0000.0001) // =======================================================
(PID.TID 0000.0001) // Begin MONITOR dynamic field statistics
(PID.TID 0000.0001) // =======================================================
(PID.TID 0000.0001) %MON time_tsnumber                =                  4096
(PID.TID 0000.0001) %MON time_secondsf                =   2.2118400000000E+07
(PID.TID 0000.0001) %MON dynstat_eta_max              =   3.0587150323747E-09
(PID.TID 0000.0001) %MON dynstat_eta_min              =  -2.5498104839918E-09
(PID.TID 0000.0001) %MON dynstat_eta_mean             =   3.9209083655559E-13
(PID.TID 0000.0001) %MON dynstat_eta_sd               =   1.2332741213500E-09
(PID.TID 0000.0001) %MON dynstat_eta_del2             =   9.0903314778029E-15
(PID.TID 0000.0001) %MON dynstat_uvel_max             =   9.7158889807609E-10
(PID.TID 0000.0001) %MON dynstat_uvel_min             =  -2.1977861398249E-09
(PID.TID 0000.0001) %MON dynstat_uvel_mean            =  -7.5414425199436E-14
(PID.TID 0000.0001) %MON dynstat_uvel_sd              =   4.9334286734342E-10
(PID.TID 0000.0001) %MON dynstat_uvel_del2            =   3.8043985722166E-14
(PID.TID 0000.0001) %MON dynstat_vvel_max             =   1.9660854699963E-09
(PID.TID 0000.0001) %MON dynstat_vvel_min             =  -2.5781723622665E-09
(PID.TID 0000.0001) %MON dynstat_vvel_mean            =   6.1012490400131E-15
(PID.TID 0000.0001) %MON dynstat_vvel_sd              =   9.5017427539104E-10
(PID.TID 0000.0001) %MON dynstat_vvel_del2            =   3.4000837328813E-14
(PID.TID 0000.0001) %MON dynstat_wvel_max             =   5.0633691367485E-15
(PID.TID 0000.0001) %MON dynstat_wvel_min             =  -8.2919136801252E-15
(PID.TID 0000.0001) %MON dynstat_wvel_mean            =   1.7110509402420E-28
(PID.TID 0000.0001) %MON dynstat_wvel_sd              =   3.1309654735449E-15
(PID.TID 0000.0001) %MON dynstat_wvel_del2            =   1.9226550893091E-20
(PID.TID 0000.0001) %MON dynstat_theta_max            =   2.0000000000000E+01
(PID.TID 0000.0001) %MON dynstat_theta_min            =   2.0000000000000E+01
(PID.TID 0000.0001) %MON dynstat_theta_mean           =   2.0000000000000E+01
(PID.TID 0000.0001) %MON dynstat_theta_sd             =   0.0000000000000E+00
(PID.TID 0000.0001) %MON dynstat_theta_del2           =   0.0000000000000E+00
(PID.TID 0000.0001) %MON dynstat_salt_max             =   3.0000000000000E+01
(PID.TID 0000.0001) %MON dynstat_salt_min             =   3.0000000000000E+01
(PID.TID 0000.0001) %MON dynstat_salt_mean            =   3.0000000000000E+01
(PID.TID 0000.0001) %MON dynstat_salt_sd              =   0.0000000000000E+00
(PID.TID 0000.0001) %MON dynstat_salt_del2            =   0.0000000000000E+00
(PID.TID 0000.0001) %MON trAdv_CFL_u_max              =   2.3779073849515E-09
(PID.TID 0000.0001) %MON trAdv_CFL_v_max              =   2.7866695892856E-09
(PID.TID 0000.0001) %MON trAdv_CFL_w_max              =   5.5070282119485E-15
(PID.TID 0000.0001) %MON advcfl_uvel_max              =   2.3736090310109E-09
(PID.TID 0000.0001) %MON advcfl_vvel_max              =   2.7844261512478E-09
(PID.TID 0000.0001) %MON advcfl_wvel_max              =   1.7910533549070E-14
(PID.TID 0000.0001) %MON advcfl_W_hf_max              =   0.0000000000000E+00
(PID.TID 0000.0001) %MON pe_b_mean                    =   1.4920668730964E-21
(PID.TID 0000.0001) %MON ke_max                       =   3.3380026803711E-18
(PID.TID 0000.0001) %MON ke_mean                      =   5.7077945996753E-19
(PID.TID 0000.0001) %MON ke_vol                       =   7.5645000000000E+15
(PID.TID 0000.0001) %MON vort_r_min                   =  -5.3577839676510E-14
(PID.TID 0000.0001) %MON vort_r_max                   =   1.0642177581387E-13
(PID.TID 0000.0001) %MON vort_a_mean                  =   8.2300000000000E-05
(PID.TID 0000.0001) %MON vort_a_sd                    =   7.1297555115597E-06
(PID.TID 0000.0001) %MON vort_p_mean                  =   8.3303658536585E-05
(PID.TID 0000.0001) %MON vort_p_sd                    =   1.7411470229759E-05
(PID.TID 0000.0001) %MON surfExpan_theta_mean         =   3.3957726655772E-27
(PID.TID 0000.0001) %MON surfExpan_salt_mean          =   5.1006313857071E-27
(PID.TID 0000.0001) // =======================================================
(PID.TID 0000.0001) // End MONITOR dynamic field statistics
(PID.TID 0000.0001) // =======================================================
 cg2d: Sum(rhs),rhsMax =  -2.00704638396863E-02  2.02713177943003E-10
 cg2d: Sum(rhs),rhsMax =  -2.01517118362643E-02  2.01895876771526E-10
 cg2d: Sum(rhs),rhsMax =  -2.02361070210391E-02  2.01053866153246E-10
 cg2d: Sum(rhs),rhsMax =  -2.03236990215605E-02  2.00187356181121E-10
 cg2d: Sum(rhs),rhsMax =  -2.04117652202558E-02  1.99323652407385E-10
 cg2d: Sum(rhs),rhsMax =  -2.04995559542964E-02  1.98470036435121E-10
 cg2d: Sum(rhs),rhsMax =  -2.05905927681245E-02  1.97592545406004E-10
 cg2d: Sum(rhs),rhsMax =  -2.06849293574639E-02  1.96691397224233E-10
 cg2d: Sum(rhs),rhsMax =  -2.07792188858779E-02  1.95798874834738E-10
 cg2d: Sum(rhs),rhsMax =  -2.08737618553829E-02  1.94912049293862E-10
 cg2d: Sum(rhs),rhsMax =  -2.09716574364467E-02  1.94002201975099E-10
 cg2d: Sum(rhs),rhsMax =  -2.10729634713285E-02  1.93069558023143E-10
 cg2d: Sum(rhs),rhsMax =  -2.11744941741281E-02  1.92143799595032E-10
 cg2d: Sum(rhs),rhsMax =  -2.12760206472643E-02  1.91226914652820E-10
 cg2d: Sum(rhs),rhsMax =  -2.13810141285929E-02  1.90287877941982E-10
 cg2d: Sum(rhs),rhsMax =  -2.14895367540034E-02  1.89326920982011E-10
(PID.TID 0000.0001)      cg2d_init_res =   3.97240181245865E-01
(PID.TID 0000.0001)      cg2d_iters(min,last) =      -1     552
(PID.TID 0000.0001)      cg2d_last_res =   9.68776412878806E-08
(PID.TID 0000.0001) // =======================================================
(PID.TID 0000.0001) // Begin MONITOR dynamic field statistics
(PID.TID 0000.0001) // =======================================================
(PID.TID 0000.0001) %MON time_tsnumber                =                  4112
(PID.TID 0000.0001) %MON time_secondsf                =   2.2204800000000E+07
(PID.TID 0000.0001) %MON dynstat_eta_max              =   2.9847075725915E-09
(PID.TID 0000.0001) %MON dynstat_eta_min              =  -2.7476312701841E-09
(PID.TID 0000.0001) %MON dynstat_eta_mean             =   3.9209086931515E-13
(PID.TID 0000.0001) %MON dynstat_eta_sd               =   1.2297372926804E-09
(PID.TID 0000.0001) %MON dynstat_eta_del2             =   9.0014831632867E-15
(PID.TID 0000.0001) %MON dynstat_uvel_max             =   8.7090722284692E-10
(PID.TID 0000.0001) %MON dynstat_uvel_min             =  -2.1222080467219E-09
(PID.TID 0000.0001) %MON dynstat_uvel_mean            =  -4.6476536615354E-14
(PID.TID 0000.0001) %MON dynstat_uvel_sd              =   4.7912628152012E-10
(PID.TID 0000.0001) %MON dynstat_uvel_del2            =   3.8264609969269E-14
(PID.TID 0000.0001) %MON dynstat_vvel_max             =   1.8983470708757E-09
(PID.TID 0000.0001) %MON dynstat_vvel_min             =  -2.5247655317177E-09
(PID.TID 0000.0001) %MON dynstat_vvel_mean            =   8.7091717677119E-15
(PID.TID 0000.0001) %MON dynstat_vvel_sd              =   9.5108586348209E-10
(PID.TID 0000.0001) %MON dynstat_vvel_del2            =   3.3030539386229E-14
(PID.TID 0000.0001) %MON dynstat_wvel_max             =   4.4630495041331E-15
(PID.TID 0000.0001) %MON dynstat_wvel_min             =  -8.3151796403946E-15
(PID.TID 0000.0001) %MON dynstat_wvel_mean            =  -1.6269591261539E-28
(PID.TID 0000.0001) %MON dynstat_wvel_sd              =   3.0998590757226E-15
(PID.TID 0000.0001) %MON dynstat_wvel_del2            =   1.9056265738417E-20
(PID.TID 0000.0001) %MON dynstat_theta_max            =   2.0000000000000E+01
(PID.TID 0000.0001) %MON dynstat_theta_min            =   2.0000000000000E+01
(PID.TID 0000.0001) %MON dynstat_theta_mean           =   2.0000000000000E+01
(PID.TID 0000.0001) %MON dynstat_theta_sd             =   0.0000000000000E+00
(PID.TID 0000.0001) %MON dynstat_theta_del2           =   0.0000000000000E+00
(PID.TID 0000.0001) %MON dynstat_salt_max             =   3.0000000000000E+01
(PID.TID 0000.0001) %MON dynstat_salt_min             =   3.0000000000000E+01
(PID.TID 0000.0001) %MON dynstat_salt_mean            =   3.0000000000000E+01
(PID.TID 0000.0001) %MON dynstat_salt_sd              =   0.0000000000000E+00
(PID.TID 0000.0001) %MON dynstat_salt_del2            =   0.0000000000000E+00
(PID.TID 0000.0001) %MON trAdv_CFL_u_max              =   2.2977322021692E-09
(PID.TID 0000.0001) %MON trAdv_CFL_v_max              =   2.7310221855615E-09
(PID.TID 0000.0001) %MON trAdv_CFL_w_max              =   4.8615326696311E-15
(PID.TID 0000.0001) %MON advcfl_uvel_max              =   2.2919846904597E-09
(PID.TID 0000.0001) %MON advcfl_vvel_max              =   2.7267467742551E-09
(PID.TID 0000.0001) %MON advcfl_wvel_max              =   1.7960788023252E-14
(PID.TID 0000.0001) %MON advcfl_W_hf_max              =   0.0000000000000E+00
(PID.TID 0000.0001) %MON pe_b_mean                    =   1.4835211374519E-21
(PID.TID 0000.0001) %MON ke_max                       =   3.1946237540484E-18
(PID.TID 0000.0001) %MON ke_mean                      =   5.6475802300955E-19
(PID.TID 0000.0001) %MON ke_vol                       =   7.5645000000000E+15
(PID.TID 0000.0001) %MON vort_r_min                   =  -5.8710487768495E-14
(PID.TID 0000.0001) %MON vort_r_max                   =   1.0012796889296E-13
(PID.TID 0000.0001) %MON vort_a_mean                  =   8.2300000000000E-05
(PID.TID 0000.0001) %MON vort_a_sd                    =   7.1297555115607E-06
(PID.TID 0000.0001) %MON vort_p_mean                  =   8.3303658536585E-05
(PID.TID 0000.0001) %MON vort_p_sd                    =   1.7411470229755E-05
(PID.TID 0000.0001) %MON surfExpan_theta_mean         =  -3.2473655395867E-27
(PID.TID 0000.0001) %MON surfExpan_salt_mean          =  -4.8209158170279E-27
(PID.TID 0000.0001) // =======================================================
(PID.TID 0000.0001) // End MONITOR dynamic field statistics
(PID.TID 0000.0001) // =======================================================
 cg2d: Sum(rhs),rhsMax =  -2.15994552395156E-02  1.88363447263915E-10
 cg2d: Sum(rhs),rhsMax =  -2.17082203448161E-02  1.87419687225875E-10
 cg2d: Sum(rhs),rhsMax =  -2.18205750250442E-02  1.86454659591741E-10
 cg2d: Sum(rhs),rhsMax =  -2.19365858656766E-02  1.85468601672344E-10
 cg2d: Sum(rhs),rhsMax =  -2.20561814865951E-02  1.84462932821409E-10
 cg2d: Sum(rhs),rhsMax =  -2.21724665457102E-02  1.83495504849337E-10
 cg2d: Sum(rhs),rhsMax =  -2.22924722773245E-02  1.82507705316382E-10
 cg2d: Sum(rhs),rhsMax =  -2.24033864736280E-02  1.81604150936841E-10
 cg2d: Sum(rhs),rhsMax =  -2.22549246165472E-02  1.82815627011206E-10
 cg2d: Sum(rhs),rhsMax =  -2.21124303824603E-02  1.83993706066684E-10
 cg2d: Sum(rhs),rhsMax =  -2.19720494278141E-02  1.85169255504788E-10
 cg2d: Sum(rhs),rhsMax =  -2.18334908904904E-02  1.86344367617070E-10
 cg2d: Sum(rhs),rhsMax =  -2.17006124134401E-02  1.87485403520029E-10
 cg2d: Sum(rhs),rhsMax =  -2.15703396160144E-02  1.88617711580190E-10
 cg2d: Sum(rhs),rhsMax =  -2.14410727898900E-02  1.89754876391890E-10
 cg2d: Sum(rhs),rhsMax =  -2.13172245064645E-02  1.90857310591836E-10
(PID.TID 0000.0001)      cg2d_init_res =   3.88737468660054E-01
(PID.TID 0000.0001)      cg2d_iters(min,last) =      -1     550
(PID.TID 0000.0001)      cg2d_last_res =   9.58692816724395E-08
(PID.TID 0000.0001) // =======================================================
(PID.TID 0000.0001) // Begin MONITOR dynamic field statistics
(PID.TID 0000.0001) // =======================================================
(PID.TID 0000.0001) %MON time_tsnumber                =                  4128
(PID.TID 0000.0001) %MON time_secondsf                =   2.2291200000000E+07
(PID.TID 0000.0001) %MON dynstat_eta_max              =   2.8843451042978E-09
(PID.TID 0000.0001) %MON dynstat_eta_min              =  -2.9078591867622E-09
(PID.TID 0000.0001) %MON dynstat_eta_mean             =   3.9209089943649E-13
(PID.TID 0000.0001) %MON dynstat_eta_sd               =   1.2230693652248E-09
(PID.TID 0000.0001) %MON dynstat_eta_del2             =   8.9424269053616E-15
(PID.TID 0000.0001) %MON dynstat_uvel_max             =   9.8025691700259E-10
(PID.TID 0000.0001) %MON dynstat_uvel_min             =  -2.0287750076236E-09
(PID.TID 0000.0001) %MON dynstat_uvel_mean            =  -1.5245790385686E-14
(PID.TID 0000.0001) %MON dynstat_uvel_sd              =   4.6722619946794E-10
(PID.TID 0000.0001) %MON dynstat_uvel_del2            =   3.8749874764331E-14
(PID.TID 0000.0001) %MON dynstat_vvel_max             =   1.8115185020592E-09
(PID.TID 0000.0001) %MON dynstat_vvel_min             =  -2.4566382510671E-09
(PID.TID 0000.0001) %MON dynstat_vvel_mean            =   1.0752097810243E-14
(PID.TID 0000.0001) %MON dynstat_vvel_sd              =   9.5075293996666E-10
(PID.TID 0000.0001) %MON dynstat_vvel_del2            =   3.1961064102617E-14
(PID.TID 0000.0001) %MON dynstat_wvel_max             =   3.8328717005820E-15
(PID.TID 0000.0001) %MON dynstat_wvel_min             =  -8.2134887990915E-15
(PID.TID 0000.0001) %MON dynstat_wvel_mean            =  -2.1431018511219E-28
(PID.TID 0000.0001) %MON dynstat_wvel_sd              =   3.0792189597527E-15
(PID.TID 0000.0001) %MON dynstat_wvel_del2            =   1.8857596299726E-20
(PID.TID 0000.0001) %MON dynstat_theta_max            =   2.0000000000000E+01
(PID.TID 0000.0001) %MON dynstat_theta_min            =   2.0000000000000E+01
(PID.TID 0000.0001) %MON dynstat_theta_mean           =   2.0000000000000E+01
(PID.TID 0000.0001) %MON dynstat_theta_sd             =   0.0000000000000E+00
(PID.TID 0000.0001) %MON dynstat_theta_del2           =   0.0000000000000E+00
(PID.TID 0000.0001) %MON dynstat_salt_max             =   3.0000000000000E+01
(PID.TID 0000.0001) %MON dynstat_salt_min             =   3.0000000000000E+01
(PID.TID 0000.0001) %MON dynstat_salt_mean            =   3.0000000000000E+01
(PID.TID 0000.0001) %MON dynstat_salt_sd              =   0.0000000000000E+00
(PID.TID 0000.0001) %MON dynstat_salt_del2            =   0.0000000000000E+00
(PID.TID 0000.0001) %MON trAdv_CFL_u_max              =   2.1979563691935E-09
(PID.TID 0000.0001) %MON trAdv_CFL_v_max              =   2.6539591863602E-09
(PID.TID 0000.0001) %MON trAdv_CFL_w_max              =   4.1825245301164E-15
(PID.TID 0000.0001) %MON advcfl_uvel_max              =   2.1910770082335E-09
(PID.TID 0000.0001) %MON advcfl_vvel_max              =   2.6531693111524E-09
(PID.TID 0000.0001) %MON advcfl_wvel_max              =   1.7741135806038E-14
(PID.TID 0000.0001) %MON advcfl_W_hf_max              =   0.0000000000000E+00
(PID.TID 0000.0001) %MON pe_b_mean                    =   1.4674767481948E-21
(PID.TID 0000.0001) %MON ke_max                       =   3.0635223668003E-18
(PID.TID 0000.0001) %MON ke_mean                      =   5.5883477905443E-19
(PID.TID 0000.0001) %MON ke_vol                       =   7.5645000000000E+15
(PID.TID 0000.0001) %MON vort_r_min                   =  -6.9214770636127E-14
(PID.TID 0000.0001) %MON vort_r_max                   =   9.2821704534878E-14
(PID.TID 0000.0001) %MON vort_a_mean                  =   8.2300000000000E-05
(PID.TID 0000.0001) %MON vort_a_sd                    =   7.1297555115676E-06
(PID.TID 0000.0001) %MON vort_p_mean                  =   8.3303658536585E-05
(PID.TID 0000.0001) %MON vort_p_sd                    =   1.7411470229750E-05
(PID.TID 0000.0001) %MON surfExpan_theta_mean         =  -4.3521828222254E-27
(PID.TID 0000.0001) %MON surfExpan_salt_mean          =  -6.4250122446240E-27
(PID.TID 0000.0001) // =======================================================
(PID.TID 0000.0001) // End MONITOR dynamic field statistics
(PID.TID 0000.0001) // =======================================================
 cg2d: Sum(rhs),rhsMax =  -2.11965884983398E-02  1.91943536606137E-10
 cg2d: Sum(rhs),rhsMax =  -2.10760586687590E-02  1.93041224939798E-10
 cg2d: Sum(rhs),rhsMax =  -2.09607095091281E-02  1.94103553719091E-10
 cg2d: Sum(rhs),rhsMax =  -2.08492970701570E-02  1.95140786549623E-10
 cg2d: Sum(rhs),rhsMax =  -2.07370008727667E-02  1.96197525422305E-10
 cg2d: Sum(rhs),rhsMax =  -2.06296689201854E-02  1.97218302401595E-10
 cg2d: Sum(rhs),rhsMax =  -2.05271186830726E-02  1.98203575176765E-10
 cg2d: Sum(rhs),rhsMax =  -2.04225992171927E-02  1.99217949772338E-10
 cg2d: Sum(rhs),rhsMax =  -2.03228471407746E-02  2.00195787277685E-10
 cg2d: Sum(rhs),rhsMax =  -2.02277638184188E-02  2.01136836383579E-10
 cg2d: Sum(rhs),rhsMax =  -2.01316869010356E-02  2.02096748311651E-10
 cg2d: Sum(rhs),rhsMax =  -2.00391178144284E-02  2.03030319602687E-10
 cg2d: Sum(rhs),rhsMax =  -1.99510469593463E-02  2.03926567345591E-10
 cg2d: Sum(rhs),rhsMax =  -1.98632178428599E-02  2.04828270100483E-10
 cg2d: Sum(rhs),rhsMax =  -1.97774720643507E-02  2.05716310154428E-10
 cg2d: Sum(rhs),rhsMax =  -1.96960697277388E-02  2.06566521060304E-10
(PID.TID 0000.0001)      cg2d_init_res =   3.54638912156579E-01
(PID.TID 0000.0001)      cg2d_iters(min,last) =      -1     549
(PID.TID 0000.0001)      cg2d_last_res =   9.23873230184016E-08
(PID.TID 0000.0001) // =======================================================
(PID.TID 0000.0001) // Begin MONITOR dynamic field statistics
(PID.TID 0000.0001) // =======================================================
(PID.TID 0000.0001) %MON time_tsnumber                =                  4144
(PID.TID 0000.0001) %MON time_secondsf                =   2.2377600000000E+07
(PID.TID 0000.0001) %MON dynstat_eta_max              =   2.7597806303955E-09
(PID.TID 0000.0001) %MON dynstat_eta_min              =  -3.0254296866116E-09
(PID.TID 0000.0001) %MON dynstat_eta_mean             =   3.9209094426866E-13
(PID.TID 0000.0001) %MON dynstat_eta_sd               =   1.2130751707478E-09
(PID.TID 0000.0001) %MON dynstat_eta_del2             =   8.9074970462088E-15
(PID.TID 0000.0001) %MON dynstat_uvel_max             =   1.1803152625365E-09
(PID.TID 0000.0001) %MON dynstat_uvel_min             =  -1.9190223857307E-09
(PID.TID 0000.0001) %MON dynstat_uvel_mean            =   1.6459022131247E-14
(PID.TID 0000.0001) %MON dynstat_uvel_sd              =   4.5938342396215E-10
(PID.TID 0000.0001) %MON dynstat_uvel_del2            =   3.9327911006496E-14
(PID.TID 0000.0001) %MON dynstat_vvel_max             =   1.8343871515835E-09
(PID.TID 0000.0001) %MON dynstat_vvel_min             =  -2.4294547613298E-09
(PID.TID 0000.0001) %MON dynstat_vvel_mean            =   1.2188849679263E-14
(PID.TID 0000.0001) %MON dynstat_vvel_sd              =   9.4839286817990E-10
(PID.TID 0000.0001) %MON dynstat_vvel_del2            =   3.0816121270250E-14
(PID.TID 0000.0001) %MON dynstat_wvel_max             =   3.9122316233819E-15
(PID.TID 0000.0001) %MON dynstat_wvel_min             =  -8.0110076497442E-15
(PID.TID 0000.0001) %MON dynstat_wvel_mean            =   2.7290223631022E-28
(PID.TID 0000.0001) %MON dynstat_wvel_sd              =   3.0695943695624E-15
(PID.TID 0000.0001) %MON dynstat_wvel_del2            =   1.8639772846397E-20
(PID.TID 0000.0001) %MON dynstat_theta_max            =   2.0000000000000E+01
(PID.TID 0000.0001) %MON dynstat_theta_min            =   2.0000000000000E+01
(PID.TID 0000.0001) %MON dynstat_theta_mean           =   2.0000000000000E+01
(PID.TID 0000.0001) %MON dynstat_theta_sd             =   0.0000000000000E+00
(PID.TID 0000.0001) %MON dynstat_theta_del2           =   0.0000000000000E+00
(PID.TID 0000.0001) %MON dynstat_salt_max             =   3.0000000000000E+01
(PID.TID 0000.0001) %MON dynstat_salt_min             =   3.0000000000000E+01
(PID.TID 0000.0001) %MON dynstat_salt_mean            =   3.0000000000000E+01
(PID.TID 0000.0001) %MON dynstat_salt_sd              =   0.0000000000000E+00
(PID.TID 0000.0001) %MON dynstat_salt_del2            =   0.0000000000000E+00
(PID.TID 0000.0001) %MON trAdv_CFL_u_max              =   2.0803511644675E-09
(PID.TID 0000.0001) %MON trAdv_CFL_v_max              =   2.6270384284317E-09
(PID.TID 0000.0001) %MON trAdv_CFL_w_max              =   4.1793825895087E-15
(PID.TID 0000.0001) %MON advcfl_uvel_max              =   2.0725441765892E-09
(PID.TID 0000.0001) %MON advcfl_vvel_max              =   2.6238111422362E-09
(PID.TID 0000.0001) %MON advcfl_wvel_max              =   1.7303776523447E-14
(PID.TID 0000.0001) %MON advcfl_W_hf_max              =   0.0000000000000E+00
(PID.TID 0000.0001) %MON pe_b_mean                    =   1.4435920446713E-21
(PID.TID 0000.0001) %MON ke_max                       =   2.9603157750078E-18
(PID.TID 0000.0001) %MON ke_mean                      =   5.5298400395541E-19
(PID.TID 0000.0001) %MON ke_vol                       =   7.5645000000000E+15
(PID.TID 0000.0001) %MON vort_r_min                   =  -7.9593711387826E-14
(PID.TID 0000.0001) %MON vort_r_max                   =   8.4658211973384E-14
(PID.TID 0000.0001) %MON vort_a_mean                  =   8.2300000000000E-05
(PID.TID 0000.0001) %MON vort_a_sd                    =   7.1297555115551E-06
(PID.TID 0000.0001) %MON vort_p_mean                  =   8.3303658536586E-05
(PID.TID 0000.0001) %MON vort_p_sd                    =   1.7411470229735E-05
(PID.TID 0000.0001) %MON surfExpan_theta_mean         =   5.4830112779070E-27
(PID.TID 0000.0001) %MON surfExpan_salt_mean          =   8.2558239353975E-27
(PID.TID 0000.0001) // =======================================================
(PID.TID 0000.0001) // End MONITOR dynamic field statistics
(PID.TID 0000.0001) // =======================================================
 cg2d: Sum(rhs),rhsMax =  -1.96162568504436E-02  2.07406981682637E-10
 cg2d: Sum(rhs),rhsMax =  -1.95370087299953E-02  2.08248289380896E-10
 cg2d: Sum(rhs),rhsMax =  -1.94619637504653E-02  2.09051292177415E-10
 cg2d: Sum(rhs),rhsMax =  -1.93899700184292E-02  2.09827487603712E-10
 cg2d: Sum(rhs),rhsMax =  -1.93169253823072E-02  2.10620926305988E-10
 cg2d: Sum(rhs),rhsMax =  -1.92479569451562E-02  2.11375615116196E-10
 cg2d: Sum(rhs),rhsMax =  -1.91830009324053E-02  2.12091360404799E-10
 cg2d: Sum(rhs),rhsMax =  -1.91165108133041E-02  2.12829047453365E-10
 cg2d: Sum(rhs),rhsMax =  -1.90533662803415E-02  2.13534382845468E-10
 cg2d: Sum(rhs),rhsMax =  -1.89941257033436E-02  2.14200374138327E-10
 cg2d: Sum(rhs),rhsMax =  -1.89351386084998E-02  2.14867656229313E-10
 cg2d: Sum(rhs),rhsMax =  -1.88775916134649E-02  2.15522666169672E-10
 cg2d: Sum(rhs),rhsMax =  -1.88238513451478E-02  2.16137963602895E-10
 cg2d: Sum(rhs),rhsMax =  -1.87722617533557E-02  2.16731951229346E-10
 cg2d: Sum(rhs),rhsMax =  -1.87201106037067E-02  2.17335731801753E-10
 cg2d: Sum(rhs),rhsMax =  -1.86716794950142E-02  2.17899464221405E-10
(PID.TID 0000.0001)      cg2d_init_res =   3.32589152095483E-01
(PID.TID 0000.0001)      cg2d_iters(min,last) =      -1     552
(PID.TID 0000.0001)      cg2d_last_res =   8.86188679030338E-08
(PID.TID 0000.0001) // =======================================================
(PID.TID 0000.0001) // Begin MONITOR dynamic field statistics
(PID.TID 0000.0001) // =======================================================
(PID.TID 0000.0001) %MON time_tsnumber                =                  4160
(PID.TID 0000.0001) %MON time_secondsf                =   2.2464000000000E+07
(PID.TID 0000.0001) %MON dynstat_eta_max              =   2.6130197115028E-09
(PID.TID 0000.0001) %MON dynstat_eta_min              =  -3.0948880847611E-09
(PID.TID 0000.0001) %MON dynstat_eta_mean             =   3.9209097816569E-13
(PID.TID 0000.0001) %MON dynstat_eta_sd               =   1.2002800119308E-09
(PID.TID 0000.0001) %MON dynstat_eta_del2             =   8.8888879762079E-15
(PID.TID 0000.0001) %MON dynstat_uvel_max             =   1.3660573546677E-09
(PID.TID 0000.0001) %MON dynstat_uvel_min             =  -1.7937568887517E-09
(PID.TID 0000.0001) %MON dynstat_uvel_mean            =   4.6812113148742E-14
(PID.TID 0000.0001) %MON dynstat_uvel_sd              =   4.5617758137201E-10
(PID.TID 0000.0001) %MON dynstat_uvel_del2            =   3.9819564916735E-14
(PID.TID 0000.0001) %MON dynstat_vvel_max             =   1.9514643517524E-09
(PID.TID 0000.0001) %MON dynstat_vvel_min             =  -2.3720111171500E-09
(PID.TID 0000.0001) %MON dynstat_vvel_mean            =   1.3010296196785E-14
(PID.TID 0000.0001) %MON dynstat_vvel_sd              =   9.4379475609795E-10
(PID.TID 0000.0001) %MON dynstat_vvel_del2            =   2.9649328072968E-14
(PID.TID 0000.0001) %MON dynstat_wvel_max             =   4.5745583604484E-15
(PID.TID 0000.0001) %MON dynstat_wvel_min             =  -7.7577356030756E-15
(PID.TID 0000.0001) %MON dynstat_wvel_mean            =  -3.8123938800664E-29
(PID.TID 0000.0001) %MON dynstat_wvel_sd              =   3.0693900057063E-15
(PID.TID 0000.0001) %MON dynstat_wvel_del2            =   1.8431433725397E-20
(PID.TID 0000.0001) %MON dynstat_theta_max            =   2.0000000000000E+01
(PID.TID 0000.0001) %MON dynstat_theta_min            =   2.0000000000000E+01
(PID.TID 0000.0001) %MON dynstat_theta_mean           =   2.0000000000000E+01
(PID.TID 0000.0001) %MON dynstat_theta_sd             =   0.0000000000000E+00
(PID.TID 0000.0001) %MON dynstat_theta_del2           =   0.0000000000000E+00
(PID.TID 0000.0001) %MON dynstat_salt_max             =   3.0000000000000E+01
(PID.TID 0000.0001) %MON dynstat_salt_min             =   3.0000000000000E+01
(PID.TID 0000.0001) %MON dynstat_salt_mean            =   3.0000000000000E+01
(PID.TID 0000.0001) %MON dynstat_salt_sd              =   0.0000000000000E+00
(PID.TID 0000.0001) %MON dynstat_salt_del2            =   0.0000000000000E+00
(PID.TID 0000.0001) %MON trAdv_CFL_u_max              =   1.9462603091940E-09
(PID.TID 0000.0001) %MON trAdv_CFL_v_max              =   2.5663711172528E-09
(PID.TID 0000.0001) %MON trAdv_CFL_w_max              =   4.8964675706031E-15
(PID.TID 0000.0001) %MON advcfl_uvel_max              =   1.9372574398518E-09
(PID.TID 0000.0001) %MON advcfl_vvel_max              =   2.5617720065220E-09
(PID.TID 0000.0001) %MON advcfl_wvel_max              =   1.6756708902643E-14
(PID.TID 0000.0001) %MON advcfl_W_hf_max              =   0.0000000000000E+00
(PID.TID 0000.0001) %MON pe_b_mean                    =   1.4132994878211E-21
(PID.TID 0000.0001) %MON ke_max                       =   2.8129212749628E-18
(PID.TID 0000.0001) %MON ke_mean                      =   5.4718983696654E-19
(PID.TID 0000.0001) %MON ke_vol                       =   7.5645000000000E+15
(PID.TID 0000.0001) %MON vort_r_min                   =  -8.8131140190825E-14
(PID.TID 0000.0001) %MON vort_r_max                   =   7.5895059761296E-14
(PID.TID 0000.0001) %MON vort_a_mean                  =   8.2300000000000E-05
(PID.TID 0000.0001) %MON vort_a_sd                    =   7.1297555115634E-06
(PID.TID 0000.0001) %MON vort_p_mean                  =   8.3303658536585E-05
(PID.TID 0000.0001) %MON vort_p_sd                    =   1.7411470229729E-05
(PID.TID 0000.0001) %MON surfExpan_theta_mean         =  -7.6696876615234E-28
(PID.TID 0000.0001) %MON surfExpan_salt_mean          =  -1.1463559933636E-27
(PID.TID 0000.0001) // =======================================================
(PID.TID 0000.0001) // End MONITOR dynamic field statistics
(PID.TID 0000.0001) // =======================================================
 cg2d: Sum(rhs),rhsMax =  -1.86269253351262E-02  2.18423003470052E-10
 cg2d: Sum(rhs),rhsMax =  -1.85804743113090E-02  2.18969060095679E-10
 cg2d: Sum(rhs),rhsMax =  -1.85371839255924E-02  2.19480425542459E-10
 cg2d: Sum(rhs),rhsMax =  -1.84974986041425E-02  2.19951309285778E-10
 cg2d: Sum(rhs),rhsMax =  -1.84583036129333E-02  2.20418362496161E-10
 cg2d: Sum(rhs),rhsMax =  -1.84200071395516E-02  2.20876628766087E-10
 cg2d: Sum(rhs),rhsMax =  -1.83852530240093E-02  2.21294158709825E-10
 cg2d: Sum(rhs),rhsMax =  -1.83532862813301E-02  2.21679597725193E-10
 cg2d: Sum(rhs),rhsMax =  -1.83198576200534E-02  2.22084102611672E-10
 cg2d: Sum(rhs),rhsMax =  -1.82899174035640E-02  2.22447650896530E-10
 cg2d: Sum(rhs),rhsMax =  -1.82634397535511E-02  2.22770148243034E-10
 cg2d: Sum(rhs),rhsMax =  -1.82365078546575E-02  2.23099139044086E-10
 cg2d: Sum(rhs),rhsMax =  -1.82112839304561E-02  2.23408148400776E-10
 cg2d: Sum(rhs),rhsMax =  -1.81894812821252E-02  2.23675935554411E-10
 cg2d: Sum(rhs),rhsMax =  -1.81697928192476E-02  2.23918307895155E-10
 cg2d: Sum(rhs),rhsMax =  -1.81492068088461E-02  2.24172291681307E-10
(PID.TID 0000.0001)      cg2d_init_res =   3.20637613628909E-01
(PID.TID 0000.0001)      cg2d_iters(min,last) =      -1     552
(PID.TID 0000.0001)      cg2d_last_res =   9.39423341954069E-08
(PID.TID 0000.0001) // =======================================================
(PID.TID 0000.0001) // Begin MONITOR dynamic field statistics
(PID.TID 0000.0001) // =======================================================
(PID.TID 0000.0001) %MON time_tsnumber                =                  4176
(PID.TID 0000.0001) %MON time_secondsf                =   2.2550400000000E+07
(PID.TID 0000.0001) %MON dynstat_eta_max              =   2.4448584261714E-09
(PID.TID 0000.0001) %MON dynstat_eta_min              =  -3.1137115141353E-09
(PID.TID 0000.0001) %MON dynstat_eta_mean             =   3.9209100976685E-13
(PID.TID 0000.0001) %MON dynstat_eta_sd               =   1.1858356093320E-09
(PID.TID 0000.0001) %MON dynstat_eta_del2             =   8.8782022706739E-15
(PID.TID 0000.0001) %MON dynstat_uvel_max             =   1.5229781280778E-09
(PID.TID 0000.0001) %MON dynstat_uvel_min             =  -1.6555132429771E-09
(PID.TID 0000.0001) %MON dynstat_uvel_mean            =   7.4082593827685E-14
(PID.TID 0000.0001) %MON dynstat_uvel_sd              =   4.5686326341808E-10
(PID.TID 0000.0001) %MON dynstat_uvel_del2            =   4.0081427752121E-14
(PID.TID 0000.0001) %MON dynstat_vvel_max             =   2.0479781442041E-09
(PID.TID 0000.0001) %MON dynstat_vvel_min             =  -2.2860892333874E-09
(PID.TID 0000.0001) %MON dynstat_vvel_mean            =   1.3238983017953E-14
(PID.TID 0000.0001) %MON dynstat_vvel_sd              =   9.3732971529465E-10
(PID.TID 0000.0001) %MON dynstat_vvel_del2            =   2.8524437931872E-14
(PID.TID 0000.0001) %MON dynstat_wvel_max             =   5.2056620156171E-15
(PID.TID 0000.0001) %MON dynstat_wvel_min             =  -7.5142771902015E-15
(PID.TID 0000.0001) %MON dynstat_wvel_mean            =   5.3083925776752E-29
(PID.TID 0000.0001) %MON dynstat_wvel_sd              =   3.0752742339554E-15
(PID.TID 0000.0001) %MON dynstat_wvel_del2            =   1.8252389203826E-20
(PID.TID 0000.0001) %MON dynstat_theta_max            =   2.0000000000000E+01
(PID.TID 0000.0001) %MON dynstat_theta_min            =   2.0000000000000E+01
(PID.TID 0000.0001) %MON dynstat_theta_mean           =   2.0000000000000E+01
(PID.TID 0000.0001) %MON dynstat_theta_sd             =   0.0000000000000E+00
(PID.TID 0000.0001) %MON dynstat_theta_del2           =   0.0000000000000E+00
(PID.TID 0000.0001) %MON dynstat_salt_max             =   3.0000000000000E+01
(PID.TID 0000.0001) %MON dynstat_salt_min             =   3.0000000000000E+01
(PID.TID 0000.0001) %MON dynstat_salt_mean            =   3.0000000000000E+01
(PID.TID 0000.0001) %MON dynstat_salt_sd              =   0.0000000000000E+00
(PID.TID 0000.0001) %MON dynstat_salt_del2            =   0.0000000000000E+00
(PID.TID 0000.0001) %MON trAdv_CFL_u_max              =   1.7975775925740E-09
(PID.TID 0000.0001) %MON trAdv_CFL_v_max              =   2.4756737856134E-09
(PID.TID 0000.0001) %MON trAdv_CFL_w_max              =   5.5810401380363E-15
(PID.TID 0000.0001) %MON advcfl_uvel_max              =   1.7879543024152E-09
(PID.TID 0000.0001) %MON advcfl_vvel_max              =   2.4689763720584E-09
(PID.TID 0000.0001) %MON advcfl_wvel_max              =   1.6230838730835E-14
(PID.TID 0000.0001) %MON advcfl_W_hf_max              =   0.0000000000000E+00
(PID.TID 0000.0001) %MON pe_b_mean                    =   1.3794883274194E-21
(PID.TID 0000.0001) %MON ke_max                       =   2.6295614017317E-18
(PID.TID 0000.0001) %MON ke_mean                      =   5.4144553935614E-19
(PID.TID 0000.0001) %MON ke_vol                       =   7.5645000000000E+15
(PID.TID 0000.0001) %MON vort_r_min                   =  -9.4557289269067E-14
(PID.TID 0000.0001) %MON vort_r_max                   =   6.6817468919803E-14
(PID.TID 0000.0001) %MON vort_a_mean                  =   8.2300000000000E-05
(PID.TID 0000.0001) %MON vort_a_sd                    =   7.1297555115627E-06
(PID.TID 0000.0001) %MON vort_p_mean                  =   8.3303658536586E-05
(PID.TID 0000.0001) %MON vort_p_sd                    =   1.7411470229721E-05
(PID.TID 0000.0001) %MON surfExpan_theta_mean         =   1.0351135646797E-27
(PID.TID 0000.0001) %MON surfExpan_salt_mean          =   1.5237058401168E-27
(PID.TID 0000.0001) // =======================================================
(PID.TID 0000.0001) // End MONITOR dynamic field statistics
(PID.TID 0000.0001) // =======================================================
 cg2d: Sum(rhs),rhsMax =  -1.81320088567124E-02  2.24384917156452E-10
 cg2d: Sum(rhs),rhsMax =  -1.81181843935311E-02  2.24556127557844E-10
 cg2d: Sum(rhs),rhsMax =  -1.81036016260217E-02  2.24737012620610E-10
 cg2d: Sum(rhs),rhsMax =  -1.80909567970891E-02  2.24894095747804E-10
 cg2d: Sum(rhs),rhsMax =  -1.80816640124950E-02  2.25009677622215E-10
 cg2d: Sum(rhs),rhsMax =  -1.80744451195430E-02  2.25099547184317E-10
 cg2d: Sum(rhs),rhsMax =  -1.80663205108519E-02  2.25200777883317E-10
 cg2d: Sum(rhs),rhsMax =  -1.80615342359042E-02  2.25260456851499E-10
 cg2d: Sum(rhs),rhsMax =  -1.80600824965224E-02  2.25278565327509E-10
 cg2d: Sum(rhs),rhsMax =  -1.80581571530720E-02  2.25302585544705E-10
 cg2d: Sum(rhs),rhsMax =  -1.80578709541431E-02  2.25306157637982E-10
 cg2d: Sum(rhs),rhsMax =  -1.80609170671476E-02  2.25268159235741E-10
 cg2d: Sum(rhs),rhsMax =  -1.80665867384294E-02  2.25197466674582E-10
 cg2d: Sum(rhs),rhsMax =  -1.80708132176053E-02  2.25144797862658E-10
 cg2d: Sum(rhs),rhsMax =  -1.80783775284375E-02  2.25050594524349E-10
 cg2d: Sum(rhs),rhsMax =  -1.80892865097646E-02  2.24914876073572E-10
(PID.TID 0000.0001)      cg2d_init_res =   3.17831326611685E-01
(PID.TID 0000.0001)      cg2d_iters(min,last) =      -1     552
(PID.TID 0000.0001)      cg2d_last_res =   9.38953937300667E-08
(PID.TID 0000.0001) // =======================================================
(PID.TID 0000.0001) // Begin MONITOR dynamic field statistics
(PID.TID 0000.0001) // =======================================================
(PID.TID 0000.0001) %MON time_tsnumber                =                  4192
(PID.TID 0000.0001) %MON time_secondsf                =   2.2636800000000E+07
(PID.TID 0000.0001) %MON dynstat_eta_max              =   2.2560263663371E-09
(PID.TID 0000.0001) %MON dynstat_eta_min              =  -3.0791111794670E-09
(PID.TID 0000.0001) %MON dynstat_eta_mean             =   3.9209104373542E-13
(PID.TID 0000.0001) %MON dynstat_eta_sd               =   1.1713098538457E-09
(PID.TID 0000.0001) %MON dynstat_eta_del2             =   8.8677786291294E-15
(PID.TID 0000.0001) %MON dynstat_uvel_max             =   1.6495093939324E-09
(PID.TID 0000.0001) %MON dynstat_uvel_min             =  -1.5363353569763E-09
(PID.TID 0000.0001) %MON dynstat_uvel_mean            =   9.6730106724584E-14
(PID.TID 0000.0001) %MON dynstat_uvel_sd              =   4.5966251054607E-10
(PID.TID 0000.0001) %MON dynstat_uvel_del2            =   4.0033140409984E-14
(PID.TID 0000.0001) %MON dynstat_vvel_max             =   2.1225967079709E-09
(PID.TID 0000.0001) %MON dynstat_vvel_min             =  -2.1790741992741E-09
(PID.TID 0000.0001) %MON dynstat_vvel_mean            =   1.2927045887232E-14
(PID.TID 0000.0001) %MON dynstat_vvel_sd              =   9.2983183000376E-10
(PID.TID 0000.0001) %MON dynstat_vvel_del2            =   2.7494679796215E-14
(PID.TID 0000.0001) %MON dynstat_wvel_max             =   5.7912990106268E-15
(PID.TID 0000.0001) %MON dynstat_wvel_min             =  -7.2563344161169E-15
(PID.TID 0000.0001) %MON dynstat_wvel_mean            =   1.1736081824887E-28
(PID.TID 0000.0001) %MON dynstat_wvel_sd              =   3.0829726010252E-15
(PID.TID 0000.0001) %MON dynstat_wvel_del2            =   1.8106464534642E-20
(PID.TID 0000.0001) %MON dynstat_theta_max            =   2.0000000000000E+01
(PID.TID 0000.0001) %MON dynstat_theta_min            =   2.0000000000000E+01
(PID.TID 0000.0001) %MON dynstat_theta_mean           =   2.0000000000000E+01
(PID.TID 0000.0001) %MON dynstat_theta_sd             =   0.0000000000000E+00
(PID.TID 0000.0001) %MON dynstat_theta_del2           =   0.0000000000000E+00
(PID.TID 0000.0001) %MON dynstat_salt_max             =   3.0000000000000E+01
(PID.TID 0000.0001) %MON dynstat_salt_min             =   3.0000000000000E+01
(PID.TID 0000.0001) %MON dynstat_salt_mean            =   3.0000000000000E+01
(PID.TID 0000.0001) %MON dynstat_salt_sd              =   0.0000000000000E+00
(PID.TID 0000.0001) %MON dynstat_salt_del2            =   0.0000000000000E+00
(PID.TID 0000.0001) %MON trAdv_CFL_u_max              =   1.7740256963766E-09
(PID.TID 0000.0001) %MON trAdv_CFL_v_max              =   2.3609003126813E-09
(PID.TID 0000.0001) %MON trAdv_CFL_w_max              =   6.2175740432213E-15
(PID.TID 0000.0001) %MON advcfl_uvel_max              =   1.7814701454470E-09
(PID.TID 0000.0001) %MON advcfl_vvel_max              =   2.3534001352160E-09
(PID.TID 0000.0001) %MON advcfl_wvel_max              =   1.5673682338813E-14
(PID.TID 0000.0001) %MON advcfl_W_hf_max              =   0.0000000000000E+00
(PID.TID 0000.0001) %MON pe_b_mean                    =   1.3458995558297E-21
(PID.TID 0000.0001) %MON ke_max                       =   2.4272351925540E-18
(PID.TID 0000.0001) %MON ke_mean                      =   5.3575169101077E-19
(PID.TID 0000.0001) %MON ke_vol                       =   7.5645000000000E+15
(PID.TID 0000.0001) %MON vort_r_min                   =  -9.8650735240963E-14
(PID.TID 0000.0001) %MON vort_r_max                   =   5.7734281073711E-14
(PID.TID 0000.0001) %MON vort_a_mean                  =   8.2300000000000E-05
(PID.TID 0000.0001) %MON vort_a_sd                    =   7.1297555115619E-06
(PID.TID 0000.0001) %MON vort_p_mean                  =   8.3303658536585E-05
(PID.TID 0000.0001) %MON vort_p_sd                    =   1.7411470229713E-05
(PID.TID 0000.0001) %MON surfExpan_theta_mean         =   2.3176941118772E-27
(PID.TID 0000.0001) %MON surfExpan_salt_mean          =   3.4692460132764E-27
(PID.TID 0000.0001) // =======================================================
(PID.TID 0000.0001) // End MONITOR dynamic field statistics
(PID.TID 0000.0001) // =======================================================
 cg2d: Sum(rhs),rhsMax =  -1.81005651906478E-02  2.24774730196871E-10
 cg2d: Sum(rhs),rhsMax =  -1.81126877304788E-02  2.24624293270053E-10
 cg2d: Sum(rhs),rhsMax =  -1.81281722206512E-02  2.24432427840428E-10
 cg2d: Sum(rhs),rhsMax =  -1.81470324095779E-02  2.24199176828925E-10
 cg2d: Sum(rhs),rhsMax =  -1.81641399865646E-02  2.23988020012152E-10
 cg2d: Sum(rhs),rhsMax =  -1.81842685928760E-02  2.23740083621548E-10
 cg2d: Sum(rhs),rhsMax =  -1.82078023418682E-02  2.23450898813390E-10
 cg2d: Sum(rhs),rhsMax =  -1.82330985569003E-02  2.23140889101815E-10
 cg2d: Sum(rhs),rhsMax =  -1.82579615682656E-02  2.22837025599901E-10
 cg2d: Sum(rhs),rhsMax =  -1.82862677704317E-02  2.22492086681582E-10
 cg2d: Sum(rhs),rhsMax =  -1.83180422534669E-02  2.22106153182230E-10
 cg2d: Sum(rhs),rhsMax =  -1.83497145461286E-02  2.21722791080419E-10
 cg2d: Sum(rhs),rhsMax =  -1.83829154725113E-02  2.21322344503879E-10
 cg2d: Sum(rhs),rhsMax =  -1.84196361273066E-02  2.20881126464199E-10
 cg2d: Sum(rhs),rhsMax =  -1.84599093216174E-02  2.20399240940936E-10
 cg2d: Sum(rhs),rhsMax =  -1.84983166812929E-02  2.19941635710657E-10
(PID.TID 0000.0001)      cg2d_init_res =   3.24047574760877E-01
(PID.TID 0000.0001)      cg2d_iters(min,last) =      -1     552
(PID.TID 0000.0001)      cg2d_last_res =   9.08416181969858E-08
(PID.TID 0000.0001) // =======================================================
(PID.TID 0000.0001) // Begin MONITOR dynamic field statistics
(PID.TID 0000.0001) // =======================================================
(PID.TID 0000.0001) %MON time_tsnumber                =                  4208
(PID.TID 0000.0001) %MON time_secondsf                =   2.2723200000000E+07
(PID.TID 0000.0001) %MON dynstat_eta_max              =   2.0466024775057E-09
(PID.TID 0000.0001) %MON dynstat_eta_min              =  -2.9916874060892E-09
(PID.TID 0000.0001) %MON dynstat_eta_mean             =   3.9209108228021E-13
(PID.TID 0000.0001) %MON dynstat_eta_sd               =   1.1583861215995E-09
(PID.TID 0000.0001) %MON dynstat_eta_del2             =   8.8516011210510E-15
(PID.TID 0000.0001) %MON dynstat_uvel_max             =   1.7392571585823E-09
(PID.TID 0000.0001) %MON dynstat_uvel_min             =  -1.5816480732510E-09
(PID.TID 0000.0001) %MON dynstat_uvel_mean            =   1.1348901364001E-13
(PID.TID 0000.0001) %MON dynstat_uvel_sd              =   4.6236550833215E-10
(PID.TID 0000.0001) %MON dynstat_uvel_del2            =   3.9669340325056E-14
(PID.TID 0000.0001) %MON dynstat_vvel_max             =   2.1750376546080E-09
(PID.TID 0000.0001) %MON dynstat_vvel_min             =  -2.0592768351210E-09
(PID.TID 0000.0001) %MON dynstat_vvel_mean            =   1.2152580039169E-14
(PID.TID 0000.0001) %MON dynstat_vvel_sd              =   9.2237374019577E-10
(PID.TID 0000.0001) %MON dynstat_vvel_del2            =   2.6587819807909E-14
(PID.TID 0000.0001) %MON dynstat_wvel_max             =   6.3165999111825E-15
(PID.TID 0000.0001) %MON dynstat_wvel_min             =  -6.9564371554809E-15
(PID.TID 0000.0001) %MON dynstat_wvel_mean            =  -1.6851631678455E-28
(PID.TID 0000.0001) %MON dynstat_wvel_sd              =   3.0882112909424E-15
(PID.TID 0000.0001) %MON dynstat_wvel_del2            =   1.7998530874329E-20
(PID.TID 0000.0001) %MON dynstat_theta_max            =   2.0000000000000E+01
(PID.TID 0000.0001) %MON dynstat_theta_min            =   2.0000000000000E+01
(PID.TID 0000.0001) %MON dynstat_theta_mean           =   2.0000000000000E+01
(PID.TID 0000.0001) %MON dynstat_theta_sd             =   0.0000000000000E+00
(PID.TID 0000.0001) %MON dynstat_theta_del2           =   0.0000000000000E+00
(PID.TID 0000.0001) %MON dynstat_salt_max             =   3.0000000000000E+01
(PID.TID 0000.0001) %MON dynstat_salt_min             =   3.0000000000000E+01
(PID.TID 0000.0001) %MON dynstat_salt_mean            =   3.0000000000000E+01
(PID.TID 0000.0001) %MON dynstat_salt_sd              =   0.0000000000000E+00
(PID.TID 0000.0001) %MON dynstat_salt_del2            =   0.0000000000000E+00
(PID.TID 0000.0001) %MON trAdv_CFL_u_max              =   1.8737482641078E-09
(PID.TID 0000.0001) %MON trAdv_CFL_v_max              =   2.3463824511049E-09
(PID.TID 0000.0001) %MON trAdv_CFL_w_max              =   6.7889952496736E-15
(PID.TID 0000.0001) %MON advcfl_uvel_max              =   1.8783977312689E-09
(PID.TID 0000.0001) %MON advcfl_vvel_max              =   2.3490406669766E-09
(PID.TID 0000.0001) %MON advcfl_wvel_max              =   1.5025904255839E-14
(PID.TID 0000.0001) %MON advcfl_W_hf_max              =   0.0000000000000E+00
(PID.TID 0000.0001) %MON pe_b_mean                    =   1.3163632478012E-21
(PID.TID 0000.0001) %MON ke_max                       =   2.5185520610620E-18
(PID.TID 0000.0001) %MON ke_mean                      =   5.3011386639580E-19
(PID.TID 0000.0001) %MON ke_vol                       =   7.5645000000000E+15
(PID.TID 0000.0001) %MON vort_r_min                   =  -1.0035187127043E-13
(PID.TID 0000.0001) %MON vort_r_max                   =   4.8987657063659E-14
(PID.TID 0000.0001) %MON vort_a_mean                  =   8.2300000000000E-05
(PID.TID 0000.0001) %MON vort_a_sd                    =   7.1297555115684E-06
(PID.TID 0000.0001) %MON vort_p_mean                  =   8.3303658536585E-05
(PID.TID 0000.0001) %MON vort_p_sd                    =   1.7411470229711E-05
(PID.TID 0000.0001) %MON surfExpan_theta_mean         =  -3.3811910345410E-27
(PID.TID 0000.0001) %MON surfExpan_salt_mean          =  -5.0649325777614E-27
(PID.TID 0000.0001) // =======================================================
(PID.TID 0000.0001) // End MONITOR dynamic field statistics
(PID.TID 0000.0001) // =======================================================
 cg2d: Sum(rhs),rhsMax =  -1.85401405612757E-02  2.19445480703453E-10
 cg2d: Sum(rhs),rhsMax =  -1.85855829043141E-02  2.18908931012193E-10
 cg2d: Sum(rhs),rhsMax =  -1.86331337819780E-02  2.18350287322517E-10
 cg2d: Sum(rhs),rhsMax =  -1.86802455487261E-02  2.17799607268398E-10
 cg2d: Sum(rhs),rhsMax =  -1.87310524119005E-02  2.17208840340699E-10
 cg2d: Sum(rhs),rhsMax =  -1.87856005967308E-02  2.16578127537933E-10
 cg2d: Sum(rhs),rhsMax =  -1.88407423847296E-02  2.15944263266419E-10
 cg2d: Sum(rhs),rhsMax =  -1.88971400595542E-02  2.15299788819645E-10
 cg2d: Sum(rhs),rhsMax =  -1.89573727724369E-02  2.14615725033162E-10
 cg2d: Sum(rhs),rhsMax =  -1.90214962203654E-02  2.13892235119384E-10
 cg2d: Sum(rhs),rhsMax =  -1.90847820130769E-02  2.13182963318128E-10
 cg2d: Sum(rhs),rhsMax =  -1.91509724020537E-02  2.12446153689979E-10
 cg2d: Sum(rhs),rhsMax =  -1.92211663172813E-02  2.11670322388746E-10
 cg2d: Sum(rhs),rhsMax =  -1.92950397382811E-02  2.10859919035216E-10
 cg2d: Sum(rhs),rhsMax =  -1.93674996098569E-02  2.10071028531768E-10
 cg2d: Sum(rhs),rhsMax =  -1.94440905478941E-02  2.09243554228579E-10
(PID.TID 0000.0001)      cg2d_init_res =   3.40283622605713E-01
(PID.TID 0000.0001)      cg2d_iters(min,last) =      -1     551
(PID.TID 0000.0001)      cg2d_last_res =   9.52479072217900E-08
(PID.TID 0000.0001) // =======================================================
(PID.TID 0000.0001) // Begin MONITOR dynamic field statistics
(PID.TID 0000.0001) // =======================================================
(PID.TID 0000.0001) %MON time_tsnumber                =                  4224
(PID.TID 0000.0001) %MON time_secondsf                =   2.2809600000000E+07
(PID.TID 0000.0001) %MON dynstat_eta_max              =   1.8176719351535E-09
(PID.TID 0000.0001) %MON dynstat_eta_min              =  -2.8532139200555E-09
(PID.TID 0000.0001) %MON dynstat_eta_mean             =   3.9209114112875E-13
(PID.TID 0000.0001) %MON dynstat_eta_sd               =   1.1485208714808E-09
(PID.TID 0000.0001) %MON dynstat_eta_del2             =   8.8257517945827E-15
(PID.TID 0000.0001) %MON dynstat_uvel_max             =   1.7871663432332E-09
(PID.TID 0000.0001) %MON dynstat_uvel_min             =  -1.5922916900729E-09
(PID.TID 0000.0001) %MON dynstat_uvel_mean            =   1.2343654978960E-13
(PID.TID 0000.0001) %MON dynstat_uvel_sd              =   4.6297102932467E-10
(PID.TID 0000.0001) %MON dynstat_uvel_del2            =   3.9058616330145E-14
(PID.TID 0000.0001) %MON dynstat_vvel_max             =   2.2505060016746E-09
(PID.TID 0000.0001) %MON dynstat_vvel_min             =  -1.9425746855060E-09
(PID.TID 0000.0001) %MON dynstat_vvel_mean            =   1.1014660376540E-14
(PID.TID 0000.0001) %MON dynstat_vvel_sd              =   9.1598049638630E-10
(PID.TID 0000.0001) %MON dynstat_vvel_del2            =   2.5803354606879E-14
(PID.TID 0000.0001) %MON dynstat_wvel_max             =   6.7677744025607E-15
(PID.TID 0000.0001) %MON dynstat_wvel_min             =  -6.6042489169083E-15
(PID.TID 0000.0001) %MON dynstat_wvel_mean            =   5.3427106866449E-29
(PID.TID 0000.0001) %MON dynstat_wvel_sd              =   3.0875781094836E-15
(PID.TID 0000.0001) %MON dynstat_wvel_del2            =   1.7935519310524E-20
(PID.TID 0000.0001) %MON dynstat_theta_max            =   2.0000000000000E+01
(PID.TID 0000.0001) %MON dynstat_theta_min            =   2.0000000000000E+01
(PID.TID 0000.0001) %MON dynstat_theta_mean           =   2.0000000000000E+01
(PID.TID 0000.0001) %MON dynstat_theta_sd             =   0.0000000000000E+00
(PID.TID 0000.0001) %MON dynstat_theta_del2           =   0.0000000000000E+00
(PID.TID 0000.0001) %MON dynstat_salt_max             =   3.0000000000000E+01
(PID.TID 0000.0001) %MON dynstat_salt_min             =   3.0000000000000E+01
(PID.TID 0000.0001) %MON dynstat_salt_mean            =   3.0000000000000E+01
(PID.TID 0000.0001) %MON dynstat_salt_sd              =   0.0000000000000E+00
(PID.TID 0000.0001) %MON dynstat_salt_del2            =   0.0000000000000E+00
(PID.TID 0000.0001) %MON trAdv_CFL_u_max              =   1.9284707709882E-09
(PID.TID 0000.0001) %MON trAdv_CFL_v_max              =   2.4238851174183E-09
(PID.TID 0000.0001) %MON trAdv_CFL_w_max              =   7.2807230859229E-15
(PID.TID 0000.0001) %MON advcfl_uvel_max              =   1.9301396506919E-09
(PID.TID 0000.0001) %MON advcfl_vvel_max              =   2.4305464818085E-09
(PID.TID 0000.0001) %MON advcfl_wvel_max              =   1.4618392709531E-14
(PID.TID 0000.0001) %MON advcfl_W_hf_max              =   0.0000000000000E+00
(PID.TID 0000.0001) %MON pe_b_mean                    =   1.2940374393891E-21
(PID.TID 0000.0001) %MON ke_max                       =   2.7306925970400E-18
(PID.TID 0000.0001) %MON ke_mean                      =   5.2454024894801E-19
(PID.TID 0000.0001) %MON ke_vol                       =   7.5645000000000E+15
(PID.TID 0000.0001) %MON vort_r_min                   =  -9.9647374122409E-14
(PID.TID 0000.0001) %MON vort_r_max                   =   4.9214498294538E-14
(PID.TID 0000.0001) %MON vort_a_mean                  =   8.2300000000000E-05
(PID.TID 0000.0001) %MON vort_a_sd                    =   7.1297555115518E-06
(PID.TID 0000.0001) %MON vort_p_mean                  =   8.3303658536586E-05
(PID.TID 0000.0001) %MON vort_p_sd                    =   1.7411470229703E-05
(PID.TID 0000.0001) %MON surfExpan_theta_mean         =   1.0752632287114E-27
(PID.TID 0000.0001) %MON surfExpan_salt_mean          =   1.6026648305003E-27
(PID.TID 0000.0001) // =======================================================
(PID.TID 0000.0001) // End MONITOR dynamic field statistics
(PID.TID 0000.0001) // =======================================================
 cg2d: Sum(rhs),rhsMax =  -1.95248856605105E-02  2.08377694953270E-10
 cg2d: Sum(rhs),rhsMax =  -1.96081979412193E-02  2.07492332388843E-10
 cg2d: Sum(rhs),rhsMax =  -1.96915569929059E-02  2.06613971016946E-10
 cg2d: Sum(rhs),rhsMax =  -1.97792716071505E-02  2.05697708861031E-10
 cg2d: Sum(rhs),rhsMax =  -1.98714276068557E-02  2.04743766069550E-10
 cg2d: Sum(rhs),rhsMax =  -1.99650189206806E-02  2.03783979586221E-10
 cg2d: Sum(rhs),rhsMax =  -2.00600928877887E-02  2.02818158686437E-10
 cg2d: Sum(rhs),rhsMax =  -2.01597872047233E-02  2.01815186437838E-10
 cg2d: Sum(rhs),rhsMax =  -2.02642021741728E-02  2.00775303935008E-10
 cg2d: Sum(rhs),rhsMax =  -2.03690468919561E-02  1.99741870821162E-10
 cg2d: Sum(rhs),rhsMax =  -2.04768003365562E-02  1.98690798411857E-10
 cg2d: Sum(rhs),rhsMax =  -2.05894868728403E-02  1.97603388865953E-10
 cg2d: Sum(rhs),rhsMax =  -2.07044810904638E-02  1.96479903240577E-10
 cg2d: Sum(rhs),rhsMax =  -2.08216920586736E-02  1.95373842650255E-10
 cg2d: Sum(rhs),rhsMax =  -2.09432428321727E-02  1.94239917034351E-10
 cg2d: Sum(rhs),rhsMax =  -2.10700905872118E-02  1.93070531621032E-10
(PID.TID 0000.0001)      cg2d_init_res =   3.68979373407932E-01
(PID.TID 0000.0001)      cg2d_iters(min,last) =      -1     551
(PID.TID 0000.0001)      cg2d_last_res =   9.88032408940841E-08
(PID.TID 0000.0001) // =======================================================
(PID.TID 0000.0001) // Begin MONITOR dynamic field statistics
(PID.TID 0000.0001) // =======================================================
(PID.TID 0000.0001) %MON time_tsnumber                =                  4240
(PID.TID 0000.0001) %MON time_secondsf                =   2.2896000000000E+07
(PID.TID 0000.0001) %MON dynstat_eta_max              =   1.6868275539733E-09
(PID.TID 0000.0001) %MON dynstat_eta_min              =  -2.6947344884447E-09
(PID.TID 0000.0001) %MON dynstat_eta_mean             =   3.9203937065983E-13
(PID.TID 0000.0001) %MON dynstat_eta_sd               =   1.1426326672460E-09
(PID.TID 0000.0001) %MON dynstat_eta_del2             =   8.7884842205713E-15
(PID.TID 0000.0001) %MON dynstat_uvel_max             =   1.7943449365086E-09
(PID.TID 0000.0001) %MON dynstat_uvel_min             =  -1.5662972337235E-09
(PID.TID 0000.0001) %MON dynstat_uvel_mean            =   1.2604135726961E-13
(PID.TID 0000.0001) %MON dynstat_uvel_sd              =   4.6017772892429E-10
(PID.TID 0000.0001) %MON dynstat_uvel_del2            =   3.8330279322000E-14
(PID.TID 0000.0001) %MON dynstat_vvel_max             =   2.3368687513367E-09
(PID.TID 0000.0001) %MON dynstat_vvel_min             =  -1.8385743325154E-09
(PID.TID 0000.0001) %MON dynstat_vvel_mean            =   9.6273042349496E-15
(PID.TID 0000.0001) %MON dynstat_vvel_sd              =   9.1134649887358E-10
(PID.TID 0000.0001) %MON dynstat_vvel_del2            =   2.5124671022839E-14
(PID.TID 0000.0001) %MON dynstat_wvel_max             =   7.1305460294657E-15
(PID.TID 0000.0001) %MON dynstat_wvel_min             =  -6.1949899607394E-15
(PID.TID 0000.0001) %MON dynstat_wvel_mean            =   6.9015516706448E-30
(PID.TID 0000.0001) %MON dynstat_wvel_sd              =   3.0791407402689E-15
(PID.TID 0000.0001) %MON dynstat_wvel_del2            =   1.7905838189908E-20
(PID.TID 0000.0001) %MON dynstat_theta_max            =   2.0000000000000E+01
(PID.TID 0000.0001) %MON dynstat_theta_min            =   2.0000000000000E+01
(PID.TID 0000.0001) %MON dynstat_theta_mean           =   2.0000000000000E+01
(PID.TID 0000.0001) %MON dynstat_theta_sd             =   0.0000000000000E+00
(PID.TID 0000.0001) %MON dynstat_theta_del2           =   0.0000000000000E+00
(PID.TID 0000.0001) %MON dynstat_salt_max             =   3.0000000000000E+01
(PID.TID 0000.0001) %MON dynstat_salt_min             =   3.0000000000000E+01
(PID.TID 0000.0001) %MON dynstat_salt_mean            =   3.0000000000000E+01
(PID.TID 0000.0001) %MON dynstat_salt_sd              =   0.0000000000000E+00
(PID.TID 0000.0001) %MON dynstat_salt_del2            =   0.0000000000000E+00
(PID.TID 0000.0001) %MON trAdv_CFL_u_max              =   1.9382868777690E-09
(PID.TID 0000.0001) %MON trAdv_CFL_v_max              =   2.5191003708653E-09
(PID.TID 0000.0001) %MON trAdv_CFL_w_max              =   7.6799344927547E-15
(PID.TID 0000.0001) %MON advcfl_uvel_max              =   1.9378925314293E-09
(PID.TID 0000.0001) %MON advcfl_vvel_max              =   2.5238182514436E-09
(PID.TID 0000.0001) %MON advcfl_wvel_max              =   1.5401979423646E-14
(PID.TID 0000.0001) %MON advcfl_W_hf_max              =   0.0000000000000E+00
(PID.TID 0000.0001) %MON pe_b_mean                    =   1.2808029841995E-21
(PID.TID 0000.0001) %MON ke_max                       =   2.8839105412914E-18
(PID.TID 0000.0001) %MON ke_mean                      =   5.1903947113945E-19
(PID.TID 0000.0001) %MON ke_vol                       =   7.5645000000000E+15
(PID.TID 0000.0001) %MON vort_r_min                   =  -9.6694266554614E-14
(PID.TID 0000.0001) %MON vort_r_max                   =   5.2949564102738E-14
(PID.TID 0000.0001) %MON vort_a_mean                  =   8.2300000000000E-05
(PID.TID 0000.0001) %MON vort_a_sd                    =   7.1297555115605E-06
(PID.TID 0000.0001) %MON vort_p_mean                  =   8.3303658536586E-05
(PID.TID 0000.0001) %MON vort_p_sd                    =   1.7411470229710E-05
(PID.TID 0000.0001) %MON surfExpan_theta_mean         =   1.2950326985491E-28
(PID.TID 0000.0001) %MON surfExpan_salt_mean          =   1.9249018282471E-28
(PID.TID 0000.0001) // =======================================================
(PID.TID 0000.0001) // End MONITOR dynamic field statistics
(PID.TID 0000.0001) // =======================================================
 cg2d: Sum(rhs),rhsMax =  -2.12021555874938E-02  1.91867918936405E-10
 cg2d: Sum(rhs),rhsMax =  -2.13332874184647E-02  1.90688537141377E-10
 cg2d: Sum(rhs),rhsMax =  -2.14699957571095E-02  1.89474340609942E-10
 cg2d: Sum(rhs),rhsMax =  -2.16124307972205E-02  1.88225622212130E-10
 cg2d: Sum(rhs),rhsMax =  -2.17595207630709E-02  1.86953252824989E-10
 cg2d: Sum(rhs),rhsMax =  -2.19069162246615E-02  1.85695380387177E-10
 cg2d: Sum(rhs),rhsMax =  -2.20603693730021E-02  1.84403671351607E-10
 cg2d: Sum(rhs),rhsMax =  -2.21804774938330E-02  1.83405116960288E-10
 cg2d: Sum(rhs),rhsMax =  -2.22779840567055E-02  1.82602385641652E-10
 cg2d: Sum(rhs),rhsMax =  -2.23736187952166E-02  1.81821861004805E-10
 cg2d: Sum(rhs),rhsMax =  -2.24738229663166E-02  1.81011169506745E-10
 cg2d: Sum(rhs),rhsMax =  -2.25786804319525E-02  1.80170535828460E-10
 cg2d: Sum(rhs),rhsMax =  -2.26848591856098E-02  1.79327228570758E-10
 cg2d: Sum(rhs),rhsMax =  -2.27911356678574E-02  1.78491013432363E-10
 cg2d: Sum(rhs),rhsMax =  -2.29022103394077E-02  1.77625339204284E-10
 cg2d: Sum(rhs),rhsMax =  -2.30181782218425E-02  1.76730444041362E-10
(PID.TID 0000.0001)      cg2d_init_res =   4.03735820764505E-01
(PID.TID 0000.0001)      cg2d_iters(min,last) =      -1     552
(PID.TID 0000.0001)      cg2d_last_res =   9.02816965718490E-08
(PID.TID 0000.0001) // =======================================================
(PID.TID 0000.0001) // Begin MONITOR dynamic field statistics
(PID.TID 0000.0001) // =======================================================
(PID.TID 0000.0001) %MON time_tsnumber                =                  4256
(PID.TID 0000.0001) %MON time_secondsf                =   2.2982400000000E+07
(PID.TID 0000.0001) %MON dynstat_eta_max              =   1.9094914614269E-09
(PID.TID 0000.0001) %MON dynstat_eta_min              =  -2.6584846267602E-09
(PID.TID 0000.0001) %MON dynstat_eta_mean             =   3.9203930967073E-13
(PID.TID 0000.0001) %MON dynstat_eta_sd               =   1.1409047831719E-09
(PID.TID 0000.0001) %MON dynstat_eta_del2             =   8.7400496492232E-15
(PID.TID 0000.0001) %MON dynstat_uvel_max             =   1.7625299131171E-09
(PID.TID 0000.0001) %MON dynstat_uvel_min             =  -1.5031426468844E-09
(PID.TID 0000.0001) %MON dynstat_uvel_mean            =   1.2118990090407E-13
(PID.TID 0000.0001) %MON dynstat_uvel_sd              =   4.5367292257953E-10
(PID.TID 0000.0001) %MON dynstat_uvel_del2            =   3.7648091999969E-14
(PID.TID 0000.0001) %MON dynstat_vvel_max             =   2.3954175079309E-09
(PID.TID 0000.0001) %MON dynstat_vvel_min             =  -1.7379536612397E-09
(PID.TID 0000.0001) %MON dynstat_vvel_mean            =   8.1127201777474E-15
(PID.TID 0000.0001) %MON dynstat_vvel_sd              =   9.0863151558773E-10
(PID.TID 0000.0001) %MON dynstat_vvel_del2            =   2.4543014549792E-14
(PID.TID 0000.0001) %MON dynstat_wvel_max             =   7.3964526023373E-15
(PID.TID 0000.0001) %MON dynstat_wvel_min             =  -5.7284974266936E-15
(PID.TID 0000.0001) %MON dynstat_wvel_mean            =   1.9013499744118E-28
(PID.TID 0000.0001) %MON dynstat_wvel_sd              =   3.0627451482315E-15
(PID.TID 0000.0001) %MON dynstat_wvel_del2            =   1.7899970562647E-20
(PID.TID 0000.0001) %MON dynstat_theta_max            =   2.0000000000000E+01
(PID.TID 0000.0001) %MON dynstat_theta_min            =   2.0000000000000E+01
(PID.TID 0000.0001) %MON dynstat_theta_mean           =   2.0000000000000E+01
(PID.TID 0000.0001) %MON dynstat_theta_sd             =   0.0000000000000E+00
(PID.TID 0000.0001) %MON dynstat_theta_del2           =   0.0000000000000E+00
(PID.TID 0000.0001) %MON dynstat_salt_max             =   3.0000000000000E+01
(PID.TID 0000.0001) %MON dynstat_salt_min             =   3.0000000000000E+01
(PID.TID 0000.0001) %MON dynstat_salt_mean            =   3.0000000000000E+01
(PID.TID 0000.0001) %MON dynstat_salt_sd              =   0.0000000000000E+00
(PID.TID 0000.0001) %MON dynstat_salt_del2            =   0.0000000000000E+00
(PID.TID 0000.0001) %MON trAdv_CFL_u_max              =   1.9069188032765E-09
(PID.TID 0000.0001) %MON trAdv_CFL_v_max              =   2.5841446450672E-09
(PID.TID 0000.0001) %MON trAdv_CFL_w_max              =   7.9739868684037E-15
(PID.TID 0000.0001) %MON advcfl_uvel_max              =   1.9035323061664E-09
(PID.TID 0000.0001) %MON advcfl_vvel_max              =   2.5870509085654E-09
(PID.TID 0000.0001) %MON advcfl_wvel_max              =   1.5976337621049E-14
(PID.TID 0000.0001) %MON advcfl_W_hf_max              =   0.0000000000000E+00
(PID.TID 0000.0001) %MON pe_b_mean                    =   1.2769322642782E-21
(PID.TID 0000.0001) %MON ke_max                       =   2.9738030457922E-18
(PID.TID 0000.0001) %MON ke_mean                      =   5.1361878009290E-19
(PID.TID 0000.0001) %MON ke_vol                       =   7.5645000000000E+15
(PID.TID 0000.0001) %MON vort_r_min                   =  -9.1675916514219E-14
(PID.TID 0000.0001) %MON vort_r_max                   =   5.4006185477929E-14
(PID.TID 0000.0001) %MON vort_a_mean                  =   8.2300000000000E-05
(PID.TID 0000.0001) %MON vort_a_sd                    =   7.1297555115557E-06
(PID.TID 0000.0001) %MON vort_p_mean                  =   8.3303658536585E-05
(PID.TID 0000.0001) %MON vort_p_sd                    =   1.7411470229714E-05
(PID.TID 0000.0001) %MON surfExpan_theta_mean         =   3.7920238490343E-27
(PID.TID 0000.0001) %MON surfExpan_salt_mean          =   5.6816666501408E-27
(PID.TID 0000.0001) // =======================================================
(PID.TID 0000.0001) // End MONITOR dynamic field statistics
(PID.TID 0000.0001) // =======================================================
 cg2d: Sum(rhs),rhsMax =  -2.31332451207220E-02  1.75851369544476E-10
 cg2d: Sum(rhs),rhsMax =  -2.32508986885705E-02  1.74961530373047E-10
 cg2d: Sum(rhs),rhsMax =  -2.33736101089781E-02  1.74042981714808E-10
 cg2d: Sum(rhs),rhsMax =  -2.35010878336015E-02  1.73098913798884E-10
 cg2d: Sum(rhs),rhsMax =  -2.36257127492659E-02  1.72185821539326E-10
 cg2d: Sum(rhs),rhsMax =  -2.37555747976667E-02  1.71244551114239E-10
 cg2d: Sum(rhs),rhsMax =  -2.38907890622694E-02  1.70275360697750E-10
 cg2d: Sum(rhs),rhsMax =  -2.40277398155034E-02  1.69304842659932E-10
 cg2d: Sum(rhs),rhsMax =  -2.41651940823947E-02  1.68341817525633E-10
 cg2d: Sum(rhs),rhsMax =  -2.43082039183683E-02  1.67351429605110E-10
 cg2d: Sum(rhs),rhsMax =  -2.44568994151121E-02  1.66333949057980E-10
 cg2d: Sum(rhs),rhsMax =  -2.46037255097596E-02  1.65341327926876E-10
 cg2d: Sum(rhs),rhsMax =  -2.47550280261377E-02  1.64330762611136E-10
 cg2d: Sum(rhs),rhsMax =  -2.48075326391707E-02  1.63982959534180E-10
 cg2d: Sum(rhs),rhsMax =  -2.46231315441391E-02  1.65211017128477E-10
 cg2d: Sum(rhs),rhsMax =  -2.44414077653565E-02  1.66439373382023E-10
(PID.TID 0000.0001)      cg2d_init_res =   4.29734277085366E-01
(PID.TID 0000.0001)      cg2d_iters(min,last) =      -1     551
(PID.TID 0000.0001)      cg2d_last_res =   9.72969169231883E-08
(PID.TID 0000.0001) // =======================================================
(PID.TID 0000.0001) // Begin MONITOR dynamic field statistics
(PID.TID 0000.0001) // =======================================================
(PID.TID 0000.0001) %MON time_tsnumber                =                  4272
(PID.TID 0000.0001) %MON time_secondsf                =   2.3068800000000E+07
(PID.TID 0000.0001) %MON dynstat_eta_max              =   2.1111322235827E-09
(PID.TID 0000.0001) %MON dynstat_eta_min              =  -2.6014201421336E-09
(PID.TID 0000.0001) %MON dynstat_eta_mean             =   3.9203928463034E-13
(PID.TID 0000.0001) %MON dynstat_eta_sd               =   1.1427605763572E-09
(PID.TID 0000.0001) %MON dynstat_eta_del2             =   8.6824089242158E-15
(PID.TID 0000.0001) %MON dynstat_uvel_max             =   1.6907977481685E-09
(PID.TID 0000.0001) %MON dynstat_uvel_min             =  -1.4053870612045E-09
(PID.TID 0000.0001) %MON dynstat_uvel_mean            =   1.0918950438274E-13
(PID.TID 0000.0001) %MON dynstat_uvel_sd              =   4.4423292276281E-10
(PID.TID 0000.0001) %MON dynstat_uvel_del2            =   3.7171341464657E-14
(PID.TID 0000.0001) %MON dynstat_vvel_max             =   2.4251635350755E-09
(PID.TID 0000.0001) %MON dynstat_vvel_min             =  -1.6378380069618E-09
(PID.TID 0000.0001) %MON dynstat_vvel_mean            =   6.5942162731798E-15
(PID.TID 0000.0001) %MON dynstat_vvel_sd              =   9.0739810058018E-10
(PID.TID 0000.0001) %MON dynstat_vvel_del2            =   2.4084837069192E-14
(PID.TID 0000.0001) %MON dynstat_wvel_max             =   7.5617332587208E-15
(PID.TID 0000.0001) %MON dynstat_wvel_min             =  -5.2058552077461E-15
(PID.TID 0000.0001) %MON dynstat_wvel_mean            =  -4.9922017009940E-29
(PID.TID 0000.0001) %MON dynstat_wvel_sd              =   3.0399773002246E-15
(PID.TID 0000.0001) %MON dynstat_wvel_del2            =   1.7927586122764E-20
(PID.TID 0000.0001) %MON dynstat_theta_max            =   2.0000000000000E+01
(PID.TID 0000.0001) %MON dynstat_theta_min            =   2.0000000000000E+01
(PID.TID 0000.0001) %MON dynstat_theta_mean           =   2.0000000000000E+01
(PID.TID 0000.0001) %MON dynstat_theta_sd             =   0.0000000000000E+00
(PID.TID 0000.0001) %MON dynstat_theta_del2           =   0.0000000000000E+00
(PID.TID 0000.0001) %MON dynstat_salt_max             =   3.0000000000000E+01
(PID.TID 0000.0001) %MON dynstat_salt_min             =   3.0000000000000E+01
(PID.TID 0000.0001) %MON dynstat_salt_mean            =   3.0000000000000E+01
(PID.TID 0000.0001) %MON dynstat_salt_sd              =   0.0000000000000E+00
(PID.TID 0000.0001) %MON dynstat_salt_del2            =   0.0000000000000E+00
(PID.TID 0000.0001) %MON trAdv_CFL_u_max              =   1.8322928955089E-09
(PID.TID 0000.0001) %MON trAdv_CFL_v_max              =   2.6178033759180E-09
(PID.TID 0000.0001) %MON trAdv_CFL_w_max              =   8.1579311276281E-15
(PID.TID 0000.0001) %MON advcfl_uvel_max              =   1.8260615680220E-09
(PID.TID 0000.0001) %MON advcfl_vvel_max              =   2.6191766178815E-09
(PID.TID 0000.0001) %MON advcfl_wvel_max              =   1.6333343838837E-14
(PID.TID 0000.0001) %MON advcfl_W_hf_max              =   0.0000000000000E+00
(PID.TID 0000.0001) %MON pe_b_mean                    =   1.2810897526882E-21
(PID.TID 0000.0001) %MON ke_max                       =   2.9984992358108E-18
(PID.TID 0000.0001) %MON ke_mean                      =   5.0828248489703E-19
(PID.TID 0000.0001) %MON ke_vol                       =   7.5645000000000E+15
(PID.TID 0000.0001) %MON vort_r_min                   =  -8.4896075139431E-14
(PID.TID 0000.0001) %MON vort_r_max                   =   5.7092382079844E-14
(PID.TID 0000.0001) %MON vort_a_mean                  =   8.2300000000000E-05
(PID.TID 0000.0001) %MON vort_a_sd                    =   7.1297555115558E-06
(PID.TID 0000.0001) %MON vort_p_mean                  =   8.3303658536585E-05
(PID.TID 0000.0001) %MON vort_p_sd                    =   1.7411470229723E-05
(PID.TID 0000.0001) %MON surfExpan_theta_mean         =  -9.8060425954080E-28
(PID.TID 0000.0001) %MON surfExpan_salt_mean          =  -1.4789887262975E-27
(PID.TID 0000.0001) // =======================================================
(PID.TID 0000.0001) // End MONITOR dynamic field statistics
(PID.TID 0000.0001) // =======================================================
 cg2d: Sum(rhs),rhsMax =  -2.42595096397117E-02  1.67687337342076E-10
 cg2d: Sum(rhs),rhsMax =  -2.40835126827457E-02  1.68912758466338E-10
 cg2d: Sum(rhs),rhsMax =  -2.39132571369533E-02  1.70115368377496E-10
 cg2d: Sum(rhs),rhsMax =  -2.37438575877779E-02  1.71329048693508E-10
 cg2d: Sum(rhs),rhsMax =  -2.35758597676189E-02  1.72549911651467E-10
 cg2d: Sum(rhs),rhsMax =  -2.34133967413878E-02  1.73747216193866E-10
 cg2d: Sum(rhs),rhsMax =  -2.32563239674900E-02  1.74920701014331E-10
 cg2d: Sum(rhs),rhsMax =  -2.30981712229593E-02  1.76118379141087E-10
 cg2d: Sum(rhs),rhsMax =  -2.29431392119277E-02  1.77308450447173E-10
 cg2d: Sum(rhs),rhsMax =  -2.27933102379257E-02  1.78473964722049E-10
 cg2d: Sum(rhs),rhsMax =  -2.26485534411742E-02  1.79614668992899E-10
 cg2d: Sum(rhs),rhsMax =  -2.25006972346087E-02  1.80794949263852E-10
 cg2d: Sum(rhs),rhsMax =  -2.23577892104910E-02  1.81950565993679E-10
 cg2d: Sum(rhs),rhsMax =  -2.22197837137731E-02  1.83080647307315E-10
 cg2d: Sum(rhs),rhsMax =  -2.20844492256294E-02  1.84202572980137E-10
 cg2d: Sum(rhs),rhsMax =  -2.19481639363057E-02  1.85346362743229E-10
(PID.TID 0000.0001)      cg2d_init_res =   3.87105615189682E-01
(PID.TID 0000.0001)      cg2d_iters(min,last) =      -1     550
(PID.TID 0000.0001)      cg2d_last_res =   9.26960692385918E-08
(PID.TID 0000.0001) // =======================================================
(PID.TID 0000.0001) // Begin MONITOR dynamic field statistics
(PID.TID 0000.0001) // =======================================================
(PID.TID 0000.0001) %MON time_tsnumber                =                  4288
(PID.TID 0000.0001) %MON time_secondsf                =   2.3155200000000E+07
(PID.TID 0000.0001) %MON dynstat_eta_max              =   2.2901263994838E-09
(PID.TID 0000.0001) %MON dynstat_eta_min              =  -2.5186274373746E-09
(PID.TID 0000.0001) %MON dynstat_eta_mean             =   3.9203926164210E-13
(PID.TID 0000.0001) %MON dynstat_eta_sd               =   1.1470177031659E-09
(PID.TID 0000.0001) %MON dynstat_eta_del2             =   8.6189283131940E-15
(PID.TID 0000.0001) %MON dynstat_uvel_max             =   1.5842829287824E-09
(PID.TID 0000.0001) %MON dynstat_uvel_min             =  -1.2747199247754E-09
(PID.TID 0000.0001) %MON dynstat_uvel_mean            =   9.0748061968935E-14
(PID.TID 0000.0001) %MON dynstat_uvel_sd              =   4.3363853954526E-10
(PID.TID 0000.0001) %MON dynstat_uvel_del2            =   3.7009789208691E-14
(PID.TID 0000.0001) %MON dynstat_vvel_max             =   2.4251971421566E-09
(PID.TID 0000.0001) %MON dynstat_vvel_min             =  -1.5410380259431E-09
(PID.TID 0000.0001) %MON dynstat_vvel_mean            =   5.1891619271670E-15
(PID.TID 0000.0001) %MON dynstat_vvel_sd              =   9.0671117176249E-10
(PID.TID 0000.0001) %MON dynstat_vvel_del2            =   2.3831157021061E-14
(PID.TID 0000.0001) %MON dynstat_wvel_max             =   7.6300776255533E-15
(PID.TID 0000.0001) %MON dynstat_wvel_min             =  -4.6298821887447E-15
(PID.TID 0000.0001) %MON dynstat_wvel_mean            =   3.1759579960145E-28
(PID.TID 0000.0001) %MON dynstat_wvel_sd              =   3.0138086862799E-15
(PID.TID 0000.0001) %MON dynstat_wvel_del2            =   1.7972401690834E-20
(PID.TID 0000.0001) %MON dynstat_theta_max            =   2.0000000000000E+01
(PID.TID 0000.0001) %MON dynstat_theta_min            =   2.0000000000000E+01
(PID.TID 0000.0001) %MON dynstat_theta_mean           =   2.0000000000000E+01
(PID.TID 0000.0001) %MON dynstat_theta_sd             =   0.0000000000000E+00
(PID.TID 0000.0001) %MON dynstat_theta_del2           =   0.0000000000000E+00
(PID.TID 0000.0001) %MON dynstat_salt_max             =   3.0000000000000E+01
(PID.TID 0000.0001) %MON dynstat_salt_min             =   3.0000000000000E+01
(PID.TID 0000.0001) %MON dynstat_salt_mean            =   3.0000000000000E+01
(PID.TID 0000.0001) %MON dynstat_salt_sd              =   0.0000000000000E+00
(PID.TID 0000.0001) %MON dynstat_salt_del2            =   0.0000000000000E+00
(PID.TID 0000.0001) %MON trAdv_CFL_u_max              =   1.7191905843921E-09
(PID.TID 0000.0001) %MON trAdv_CFL_v_max              =   2.6200551690229E-09
(PID.TID 0000.0001) %MON trAdv_CFL_w_max              =   8.2383197745672E-15
(PID.TID 0000.0001) %MON advcfl_uvel_max              =   1.7110255630850E-09
(PID.TID 0000.0001) %MON advcfl_vvel_max              =   2.6192129135291E-09
(PID.TID 0000.0001) %MON advcfl_wvel_max              =   1.6480967671195E-14
(PID.TID 0000.0001) %MON advcfl_W_hf_max              =   0.0000000000000E+00
(PID.TID 0000.0001) %MON pe_b_mean                    =   1.2906524195344E-21
(PID.TID 0000.0001) %MON ke_max                       =   2.9618649028990E-18
(PID.TID 0000.0001) %MON ke_mean                      =   5.0303058406260E-19
(PID.TID 0000.0001) %MON ke_vol                       =   7.5645000000000E+15
(PID.TID 0000.0001) %MON vort_r_min                   =  -7.6743961577731E-14
(PID.TID 0000.0001) %MON vort_r_max                   =   6.4346914019133E-14
(PID.TID 0000.0001) %MON vort_a_mean                  =   8.2300000000000E-05
(PID.TID 0000.0001) %MON vort_a_sd                    =   7.1297555115492E-06
(PID.TID 0000.0001) %MON vort_p_mean                  =   8.3303658536586E-05
(PID.TID 0000.0001) %MON vort_p_sd                    =   1.7411470229732E-05
(PID.TID 0000.0001) %MON surfExpan_theta_mean         =   6.3860943027709E-27
(PID.TID 0000.0001) %MON surfExpan_salt_mean          =   9.5815421926571E-27
(PID.TID 0000.0001) // =======================================================
(PID.TID 0000.0001) // End MONITOR dynamic field statistics
(PID.TID 0000.0001) // =======================================================
 cg2d: Sum(rhs),rhsMax =  -2.18166213925848E-02  1.86463901309772E-10
 cg2d: Sum(rhs),rhsMax =  -2.16897092917328E-02  1.87554949088551E-10
 cg2d: Sum(rhs),rhsMax =  -2.15629851581140E-02  1.88657195491342E-10
 cg2d: Sum(rhs),rhsMax =  -2.14376392060785E-02  1.89760274053351E-10
 cg2d: Sum(rhs),rhsMax =  -2.13167789608440E-02  1.90836161692348E-10
 cg2d: Sum(rhs),rhsMax =  -2.12003029183893E-02  1.91884629055702E-10
 cg2d: Sum(rhs),rhsMax =  -2.10815420300656E-02  1.92965592420388E-10
 cg2d: Sum(rhs),rhsMax =  -2.09664958990190E-02  1.94024421228720E-10
 cg2d: Sum(rhs),rhsMax =  -2.08557029731807E-02  1.95055147339883E-10
 cg2d: Sum(rhs),rhsMax =  -2.07471548700955E-02  1.96075665639208E-10
 cg2d: Sum(rhs),rhsMax =  -2.06377032361422E-02  1.97115548060313E-10
 cg2d: Sum(rhs),rhsMax =  -2.05323815876631E-02  1.98126659086810E-10
 cg2d: Sum(rhs),rhsMax =  -2.04311031363087E-02  1.99108786389405E-10
 cg2d: Sum(rhs),rhsMax =  -2.03293523563367E-02  2.00105348325912E-10
 cg2d: Sum(rhs),rhsMax =  -2.02293065210732E-02  2.01094986275062E-10
 cg2d: Sum(rhs),rhsMax =  -2.01331926526353E-02  2.02054993011044E-10
(PID.TID 0000.0001)      cg2d_init_res =   3.56438633040652E-01
(PID.TID 0000.0001)      cg2d_iters(min,last) =      -1     550
(PID.TID 0000.0001)      cg2d_last_res =   8.92180556300529E-08
(PID.TID 0000.0001) // =======================================================
(PID.TID 0000.0001) // Begin MONITOR dynamic field statistics
(PID.TID 0000.0001) // =======================================================
(PID.TID 0000.0001) %MON time_tsnumber                =                  4304
(PID.TID 0000.0001) %MON time_secondsf                =   2.3241600000000E+07
(PID.TID 0000.0001) %MON dynstat_eta_max              =   2.4459667265587E-09
(PID.TID 0000.0001) %MON dynstat_eta_min              =  -2.4081211287719E-09
(PID.TID 0000.0001) %MON dynstat_eta_mean             =   3.9203923713652E-13
(PID.TID 0000.0001) %MON dynstat_eta_sd               =   1.1521697019243E-09
(PID.TID 0000.0001) %MON dynstat_eta_del2             =   8.5541018694986E-15
(PID.TID 0000.0001) %MON dynstat_uvel_max             =   1.4476225008395E-09
(PID.TID 0000.0001) %MON dynstat_uvel_min             =  -1.1808390703957E-09
(PID.TID 0000.0001) %MON dynstat_uvel_mean            =   6.6931739271418E-14
(PID.TID 0000.0001) %MON dynstat_uvel_sd              =   4.2436652045755E-10
(PID.TID 0000.0001) %MON dynstat_uvel_del2            =   3.7187569819715E-14
(PID.TID 0000.0001) %MON dynstat_vvel_max             =   2.3948705237657E-09
(PID.TID 0000.0001) %MON dynstat_vvel_min             =  -1.6380436466486E-09
(PID.TID 0000.0001) %MON dynstat_vvel_mean            =   4.0023916311242E-15
(PID.TID 0000.0001) %MON dynstat_vvel_sd              =   9.0536855192795E-10
(PID.TID 0000.0001) %MON dynstat_vvel_del2            =   2.3916185615306E-14
(PID.TID 0000.0001) %MON dynstat_wvel_max             =   7.6172094509719E-15
(PID.TID 0000.0001) %MON dynstat_wvel_min             =  -4.0067602213867E-15
(PID.TID 0000.0001) %MON dynstat_wvel_mean            =   2.7245610743294E-28
(PID.TID 0000.0001) %MON dynstat_wvel_sd              =   2.9879783302036E-15
(PID.TID 0000.0001) %MON dynstat_wvel_del2            =   1.8034017888766E-20
(PID.TID 0000.0001) %MON dynstat_theta_max            =   2.0000000000000E+01
(PID.TID 0000.0001) %MON dynstat_theta_min            =   2.0000000000000E+01
(PID.TID 0000.0001) %MON dynstat_theta_mean           =   2.0000000000000E+01
(PID.TID 0000.0001) %MON dynstat_theta_sd             =   0.0000000000000E+00
(PID.TID 0000.0001) %MON dynstat_theta_del2           =   0.0000000000000E+00
(PID.TID 0000.0001) %MON dynstat_salt_max             =   3.0000000000000E+01
(PID.TID 0000.0001) %MON dynstat_salt_min             =   3.0000000000000E+01
(PID.TID 0000.0001) %MON dynstat_salt_mean            =   3.0000000000000E+01
(PID.TID 0000.0001) %MON dynstat_salt_sd              =   0.0000000000000E+00
(PID.TID 0000.0001) %MON dynstat_salt_del2            =   0.0000000000000E+00
(PID.TID 0000.0001) %MON trAdv_CFL_u_max              =   1.5732506612728E-09
(PID.TID 0000.0001) %MON trAdv_CFL_v_max              =   2.5896090976778E-09
(PID.TID 0000.0001) %MON trAdv_CFL_w_max              =   8.2297332987369E-15
(PID.TID 0000.0001) %MON advcfl_uvel_max              =   1.5634323009066E-09
(PID.TID 0000.0001) %MON advcfl_vvel_max              =   2.5864601656670E-09
(PID.TID 0000.0001) %MON advcfl_wvel_max              =   1.6453172414099E-14
(PID.TID 0000.0001) %MON advcfl_W_hf_max              =   0.0000000000000E+00
(PID.TID 0000.0001) %MON pe_b_mean                    =   1.3022727673882E-21
(PID.TID 0000.0001) %MON ke_max                       =   2.8695905272417E-18
(PID.TID 0000.0001) %MON ke_mean                      =   4.9785751003109E-19
(PID.TID 0000.0001) %MON ke_vol                       =   7.5645000000000E+15
(PID.TID 0000.0001) %MON vort_r_min                   =  -6.7574980110658E-14
(PID.TID 0000.0001) %MON vort_r_max                   =   7.2199561392566E-14
(PID.TID 0000.0001) %MON vort_a_mean                  =   8.2299999999999E-05
(PID.TID 0000.0001) %MON vort_a_sd                    =   7.1297555115643E-06
(PID.TID 0000.0001) %MON vort_p_mean                  =   8.3303658536585E-05
(PID.TID 0000.0001) %MON vort_p_sd                    =   1.7411470229754E-05
(PID.TID 0000.0001) %MON surfExpan_theta_mean         =   5.4158486867834E-27
(PID.TID 0000.0001) %MON surfExpan_salt_mean          =   8.1203556309876E-27
(PID.TID 0000.0001) // =======================================================
(PID.TID 0000.0001) // End MONITOR dynamic field statistics
(PID.TID 0000.0001) // =======================================================
 cg2d: Sum(rhs),rhsMax =  -2.00404936384800E-02  2.02989614803800E-10
 cg2d: Sum(rhs),rhsMax =  -1.99455433525628E-02  2.03955941096221E-10
 cg2d: Sum(rhs),rhsMax =  -1.98544206081265E-02  2.04892004899646E-10
 cg2d: Sum(rhs),rhsMax =  -1.97670515360891E-02  2.05797613108185E-10
 cg2d: Sum(rhs),rhsMax =  -1.96802474856689E-02  2.06705327625102E-10
 cg2d: Sum(rhs),rhsMax =  -1.95939563642220E-02  2.07615649945273E-10
 cg2d: Sum(rhs),rhsMax =  -1.95113250838257E-02  2.08494909987094E-10
 cg2d: Sum(rhs),rhsMax =  -1.94322874114033E-02  2.09342928191357E-10
 cg2d: Sum(rhs),rhsMax =  -1.93510511445003E-02  2.10221754828145E-10
 cg2d: Sum(rhs),rhsMax =  -1.92730172178503E-02  2.11072914054882E-10
 cg2d: Sum(rhs),rhsMax =  -1.91984929206884E-02  2.11892251218970E-10
 cg2d: Sum(rhs),rhsMax =  -1.91250317685386E-02  2.12706149162154E-10
 cg2d: Sum(rhs),rhsMax =  -1.90514669141474E-02  2.13527486158797E-10
 cg2d: Sum(rhs),rhsMax =  -1.89813333985684E-02  2.14316440802261E-10
 cg2d: Sum(rhs),rhsMax =  -1.89145755926202E-02  2.15072856027406E-10
 cg2d: Sum(rhs),rhsMax =  -1.88460829118940E-02  2.15854498234560E-10
(PID.TID 0000.0001)      cg2d_init_res =   3.35086712447313E-01
(PID.TID 0000.0001)      cg2d_iters(min,last) =      -1     548
(PID.TID 0000.0001)      cg2d_last_res =   9.60694777438061E-08
(PID.TID 0000.0001) // =======================================================
(PID.TID 0000.0001) // Begin MONITOR dynamic field statistics
(PID.TID 0000.0001) // =======================================================
(PID.TID 0000.0001) %MON time_tsnumber                =                  4320
(PID.TID 0000.0001) %MON time_secondsf                =   2.3328000000000E+07
(PID.TID 0000.0001) %MON dynstat_eta_max              =   2.6035936825830E-09
(PID.TID 0000.0001) %MON dynstat_eta_min              =  -2.2705663284917E-09
(PID.TID 0000.0001) %MON dynstat_eta_mean             =   3.9203920492793E-13
(PID.TID 0000.0001) %MON dynstat_eta_sd               =   1.1567116579270E-09
(PID.TID 0000.0001) %MON dynstat_eta_del2             =   8.4932823717388E-15
(PID.TID 0000.0001) %MON dynstat_uvel_max             =   1.2879531936229E-09
(PID.TID 0000.0001) %MON dynstat_uvel_min             =  -1.3461138100773E-09
(PID.TID 0000.0001) %MON dynstat_uvel_mean            =   3.9103189251690E-14
(PID.TID 0000.0001) %MON dynstat_uvel_sd              =   4.1900854152129E-10
(PID.TID 0000.0001) %MON dynstat_uvel_del2            =   3.7632907625141E-14
(PID.TID 0000.0001) %MON dynstat_vvel_max             =   2.3356875662969E-09
(PID.TID 0000.0001) %MON dynstat_vvel_min             =  -1.7837462554566E-09
(PID.TID 0000.0001) %MON dynstat_vvel_mean            =   3.1204061415602E-15
(PID.TID 0000.0001) %MON dynstat_vvel_sd              =   9.0219531352496E-10
(PID.TID 0000.0001) %MON dynstat_vvel_del2            =   2.4494838996628E-14
(PID.TID 0000.0001) %MON dynstat_wvel_max             =   7.5426231005427E-15
(PID.TID 0000.0001) %MON dynstat_wvel_min             =  -3.3488864394082E-15
(PID.TID 0000.0001) %MON dynstat_wvel_mean            =   2.6889387731272E-28
(PID.TID 0000.0001) %MON dynstat_wvel_sd              =   2.9662072776485E-15
(PID.TID 0000.0001) %MON dynstat_wvel_del2            =   1.8108932299639E-20
(PID.TID 0000.0001) %MON dynstat_theta_max            =   2.0000000000000E+01
(PID.TID 0000.0001) %MON dynstat_theta_min            =   2.0000000000000E+01
(PID.TID 0000.0001) %MON dynstat_theta_mean           =   2.0000000000000E+01
(PID.TID 0000.0001) %MON dynstat_theta_sd             =   0.0000000000000E+00
(PID.TID 0000.0001) %MON dynstat_theta_del2           =   0.0000000000000E+00
(PID.TID 0000.0001) %MON dynstat_salt_max             =   3.0000000000000E+01
(PID.TID 0000.0001) %MON dynstat_salt_min             =   3.0000000000000E+01
(PID.TID 0000.0001) %MON dynstat_salt_mean            =   3.0000000000000E+01
(PID.TID 0000.0001) %MON dynstat_salt_sd              =   0.0000000000000E+00
(PID.TID 0000.0001) %MON dynstat_salt_del2            =   0.0000000000000E+00
(PID.TID 0000.0001) %MON trAdv_CFL_u_max              =   1.4431754815388E-09
(PID.TID 0000.0001) %MON trAdv_CFL_v_max              =   2.5273187771296E-09
(PID.TID 0000.0001) %MON trAdv_CFL_w_max              =   8.1525135135707E-15
(PID.TID 0000.0001) %MON advcfl_uvel_max              =   1.4538029148835E-09
(PID.TID 0000.0001) %MON advcfl_vvel_max              =   2.5225425716007E-09
(PID.TID 0000.0001) %MON advcfl_wvel_max              =   1.6292065897172E-14
(PID.TID 0000.0001) %MON advcfl_W_hf_max              =   0.0000000000000E+00
(PID.TID 0000.0001) %MON pe_b_mean                    =   1.3125603550268E-21
(PID.TID 0000.0001) %MON ke_max                       =   2.7314197898374E-18
(PID.TID 0000.0001) %MON ke_mean                      =   4.9275104283025E-19
(PID.TID 0000.0001) %MON ke_vol                       =   7.5645000000000E+15
(PID.TID 0000.0001) %MON vort_r_min                   =  -6.3582339279935E-14
(PID.TID 0000.0001) %MON vort_r_max                   =   8.0430451568762E-14
(PID.TID 0000.0001) %MON vort_a_mean                  =   8.2300000000001E-05
(PID.TID 0000.0001) %MON vort_a_sd                    =   7.1297555115501E-06
(PID.TID 0000.0001) %MON vort_p_mean                  =   8.3303658536586E-05
(PID.TID 0000.0001) %MON vort_p_sd                    =   1.7411470229764E-05
(PID.TID 0000.0001) %MON surfExpan_theta_mean         =   5.3713119922696E-27
(PID.TID 0000.0001) %MON surfExpan_salt_mean          =   7.9874361516767E-27
(PID.TID 0000.0001) // =======================================================
(PID.TID 0000.0001) // End MONITOR dynamic field statistics
(PID.TID 0000.0001) // =======================================================
 cg2d: Sum(rhs),rhsMax =  -1.87802288626533E-02  2.16611404460903E-10
 cg2d: Sum(rhs),rhsMax =  -1.87176811076326E-02  2.17335240584190E-10
 cg2d: Sum(rhs),rhsMax =  -1.86563388410213E-02  2.18049840366734E-10
 cg2d: Sum(rhs),rhsMax =  -1.85946637450224E-02  2.18773070587779E-10
 cg2d: Sum(rhs),rhsMax =  -1.85362307596283E-02  2.19462722174462E-10
 cg2d: Sum(rhs),rhsMax =  -1.84809938127129E-02  2.20118662502574E-10
 cg2d: Sum(rhs),rhsMax =  -1.84241829479246E-02  2.20797395891404E-10
 cg2d: Sum(rhs),rhsMax =  -1.83697797155306E-02  2.21451299624421E-10
 cg2d: Sum(rhs),rhsMax =  -1.83185164912844E-02  2.22071016021718E-10
 cg2d: Sum(rhs),rhsMax =  -1.82683883826887E-02  2.22680373345123E-10
 cg2d: Sum(rhs),rhsMax =  -1.82179399313980E-02  2.23297010399569E-10
 cg2d: Sum(rhs),rhsMax =  -1.81705803043278E-02  2.23879008387535E-10
 cg2d: Sum(rhs),rhsMax =  -1.81262721237944E-02  2.24426260883784E-10
 cg2d: Sum(rhs),rhsMax =  -1.80803770320704E-02  2.24995941351300E-10
 cg2d: Sum(rhs),rhsMax =  -1.80368605311979E-02  2.25538774606376E-10
 cg2d: Sum(rhs),rhsMax =  -1.79963519627798E-02  2.26046445651650E-10
(PID.TID 0000.0001)      cg2d_init_res =   3.21418020830173E-01
(PID.TID 0000.0001)      cg2d_iters(min,last) =      -1     541
(PID.TID 0000.0001)      cg2d_last_res =   9.83605738138436E-08
(PID.TID 0000.0001) // =======================================================
(PID.TID 0000.0001) // Begin MONITOR dynamic field statistics
(PID.TID 0000.0001) // =======================================================
(PID.TID 0000.0001) %MON time_tsnumber                =                  4336
(PID.TID 0000.0001) %MON time_secondsf                =   2.3414400000000E+07
(PID.TID 0000.0001) %MON dynstat_eta_max              =   2.7517757340099E-09
(PID.TID 0000.0001) %MON dynstat_eta_min              =  -2.1074703058096E-09
(PID.TID 0000.0001) %MON dynstat_eta_mean             =   3.9203916755558E-13
(PID.TID 0000.0001) %MON dynstat_eta_sd               =   1.1594306307702E-09
(PID.TID 0000.0001) %MON dynstat_eta_del2             =   8.4423542006238E-15
(PID.TID 0000.0001) %MON dynstat_uvel_max             =   1.3823790776642E-09
(PID.TID 0000.0001) %MON dynstat_uvel_min             =  -1.4958874894056E-09
(PID.TID 0000.0001) %MON dynstat_uvel_mean            =   8.8438402723870E-15
(PID.TID 0000.0001) %MON dynstat_uvel_sd              =   4.1947580072146E-10
(PID.TID 0000.0001) %MON dynstat_uvel_del2            =   3.8199031686360E-14
(PID.TID 0000.0001) %MON dynstat_vvel_max             =   2.2492715354675E-09
(PID.TID 0000.0001) %MON dynstat_vvel_min             =  -1.9440277234750E-09
(PID.TID 0000.0001) %MON dynstat_vvel_mean            =   2.6066757812079E-15
(PID.TID 0000.0001) %MON dynstat_vvel_sd              =   8.9632828265954E-10
(PID.TID 0000.0001) %MON dynstat_vvel_del2            =   2.5683044415263E-14
(PID.TID 0000.0001) %MON dynstat_wvel_max             =   7.4166368269069E-15
(PID.TID 0000.0001) %MON dynstat_wvel_min             =  -3.4279428978712E-15
(PID.TID 0000.0001) %MON dynstat_wvel_mean            =   1.8959809377464E-28
(PID.TID 0000.0001) %MON dynstat_wvel_sd              =   2.9513950658968E-15
(PID.TID 0000.0001) %MON dynstat_wvel_del2            =   1.8185807320135E-20
(PID.TID 0000.0001) %MON dynstat_theta_max            =   2.0000000000000E+01
(PID.TID 0000.0001) %MON dynstat_theta_min            =   2.0000000000000E+01
(PID.TID 0000.0001) %MON dynstat_theta_mean           =   2.0000000000000E+01
(PID.TID 0000.0001) %MON dynstat_theta_sd             =   0.0000000000000E+00
(PID.TID 0000.0001) %MON dynstat_theta_del2           =   0.0000000000000E+00
(PID.TID 0000.0001) %MON dynstat_salt_max             =   3.0000000000000E+01
(PID.TID 0000.0001) %MON dynstat_salt_min             =   3.0000000000000E+01
(PID.TID 0000.0001) %MON dynstat_salt_mean            =   3.0000000000000E+01
(PID.TID 0000.0001) %MON dynstat_salt_sd              =   0.0000000000000E+00
(PID.TID 0000.0001) %MON dynstat_salt_del2            =   0.0000000000000E+00
(PID.TID 0000.0001) %MON trAdv_CFL_u_max              =   1.6060726163307E-09
(PID.TID 0000.0001) %MON trAdv_CFL_v_max              =   2.4358615804739E-09
(PID.TID 0000.0001) %MON trAdv_CFL_w_max              =   8.0198584852087E-15
(PID.TID 0000.0001) %MON advcfl_uvel_max              =   1.6155584885581E-09
(PID.TID 0000.0001) %MON advcfl_vvel_max              =   2.4292132583049E-09
(PID.TID 0000.0001) %MON advcfl_wvel_max              =   1.6019935546119E-14
(PID.TID 0000.0001) %MON advcfl_W_hf_max              =   0.0000000000000E+00
(PID.TID 0000.0001) %MON pe_b_mean                    =   1.3187382299789E-21
(PID.TID 0000.0001) %MON ke_max                       =   2.5585074433512E-18
(PID.TID 0000.0001) %MON ke_mean                      =   4.8769159096336E-19
(PID.TID 0000.0001) %MON ke_vol                       =   7.5645000000000E+15
(PID.TID 0000.0001) %MON vort_r_min                   =  -6.7474160135313E-14
(PID.TID 0000.0001) %MON vort_r_max                   =   8.7211884959742E-14
(PID.TID 0000.0001) %MON vort_a_mean                  =   8.2300000000000E-05
(PID.TID 0000.0001) %MON vort_a_sd                    =   7.1297555115665E-06
(PID.TID 0000.0001) %MON vort_p_mean                  =   8.3303658536585E-05
(PID.TID 0000.0001) %MON vort_p_sd                    =   1.7411470229786E-05
(PID.TID 0000.0001) %MON surfExpan_theta_mean         =   3.7626490946649E-27
(PID.TID 0000.0001) %MON surfExpan_salt_mean          =   5.5770217733443E-27
(PID.TID 0000.0001) // =======================================================
(PID.TID 0000.0001) // End MONITOR dynamic field statistics
(PID.TID 0000.0001) // =======================================================
 cg2d: Sum(rhs),rhsMax =  -1.79568078982967E-02  2.26544237987313E-10
 cg2d: Sum(rhs),rhsMax =  -1.79170837072684E-02  2.27046510151550E-10
 cg2d: Sum(rhs),rhsMax =  -1.78803285438407E-02  2.27513229752717E-10
 cg2d: Sum(rhs),rhsMax =  -1.78465130917953E-02  2.27944318491564E-10
 cg2d: Sum(rhs),rhsMax =  -1.78110255585018E-02  2.28398483848486E-10
 cg2d: Sum(rhs),rhsMax =  -1.77779871289420E-02  2.28822935351598E-10
 cg2d: Sum(rhs),rhsMax =  -1.77478568463655E-02  2.29211402866971E-10
 cg2d: Sum(rhs),rhsMax =  -1.77185094029840E-02  2.29591047326998E-10
 cg2d: Sum(rhs),rhsMax =  -1.76891606145553E-02  2.29971969014498E-10
 cg2d: Sum(rhs),rhsMax =  -1.76626929198270E-02  2.30316581964761E-10
 cg2d: Sum(rhs),rhsMax =  -1.76390846811652E-02  2.30624836903129E-10
 cg2d: Sum(rhs),rhsMax =  -1.76137284119463E-02  2.30956836506379E-10
 cg2d: Sum(rhs),rhsMax =  -1.75909104497511E-02  2.31256419004183E-10
 cg2d: Sum(rhs),rhsMax =  -1.75709320791499E-02  2.31519358477296E-10
 cg2d: Sum(rhs),rhsMax =  -1.75516157019108E-02  2.31774154337859E-10
 cg2d: Sum(rhs),rhsMax =  -1.75324445250356E-02  2.32027590027368E-10
(PID.TID 0000.0001)      cg2d_init_res =   3.14436071568141E-01
(PID.TID 0000.0001)      cg2d_iters(min,last) =      -1     538
(PID.TID 0000.0001)      cg2d_last_res =   9.50211504903137E-08
(PID.TID 0000.0001) // =======================================================
(PID.TID 0000.0001) // Begin MONITOR dynamic field statistics
(PID.TID 0000.0001) // =======================================================
(PID.TID 0000.0001) %MON time_tsnumber                =                  4352
(PID.TID 0000.0001) %MON time_secondsf                =   2.3500800000000E+07
(PID.TID 0000.0001) %MON dynstat_eta_max              =   2.8554419738625E-09
(PID.TID 0000.0001) %MON dynstat_eta_min              =  -1.9209475040537E-09
(PID.TID 0000.0001) %MON dynstat_eta_mean             =   3.9203911466478E-13
(PID.TID 0000.0001) %MON dynstat_eta_sd               =   1.1596080506153E-09
(PID.TID 0000.0001) %MON dynstat_eta_del2             =   8.4072628004777E-15
(PID.TID 0000.0001) %MON dynstat_uvel_max             =   1.4704501365877E-09
(PID.TID 0000.0001) %MON dynstat_uvel_min             =  -1.6235694747472E-09
(PID.TID 0000.0001) %MON dynstat_uvel_mean            =  -2.2135246091060E-14
(PID.TID 0000.0001) %MON dynstat_uvel_sd              =   4.2627143009933E-10
(PID.TID 0000.0001) %MON dynstat_uvel_del2            =   3.8705258466192E-14
(PID.TID 0000.0001) %MON dynstat_vvel_max             =   2.1375654168457E-09
(PID.TID 0000.0001) %MON dynstat_vvel_min             =  -2.0858372887598E-09
(PID.TID 0000.0001) %MON dynstat_vvel_mean            =   2.4982870806347E-15
(PID.TID 0000.0001) %MON dynstat_vvel_sd              =   8.8743280818903E-10
(PID.TID 0000.0001) %MON dynstat_vvel_del2            =   2.7499790853018E-14
(PID.TID 0000.0001) %MON dynstat_wvel_max             =   7.2433078548984E-15
(PID.TID 0000.0001) %MON dynstat_wvel_min             =  -3.9823861414101E-15
(PID.TID 0000.0001) %MON dynstat_wvel_mean            =  -1.4028432357142E-29
(PID.TID 0000.0001) %MON dynstat_wvel_sd              =   2.9449858005503E-15
(PID.TID 0000.0001) %MON dynstat_wvel_del2            =   1.8264970793819E-20
(PID.TID 0000.0001) %MON dynstat_theta_max            =   2.0000000000000E+01
(PID.TID 0000.0001) %MON dynstat_theta_min            =   2.0000000000000E+01
(PID.TID 0000.0001) %MON dynstat_theta_mean           =   2.0000000000000E+01
(PID.TID 0000.0001) %MON dynstat_theta_sd             =   0.0000000000000E+00
(PID.TID 0000.0001) %MON dynstat_theta_del2           =   0.0000000000000E+00
(PID.TID 0000.0001) %MON dynstat_salt_max             =   3.0000000000000E+01
(PID.TID 0000.0001) %MON dynstat_salt_min             =   3.0000000000000E+01
(PID.TID 0000.0001) %MON dynstat_salt_mean            =   3.0000000000000E+01
(PID.TID 0000.0001) %MON dynstat_salt_sd              =   0.0000000000000E+00
(PID.TID 0000.0001) %MON dynstat_salt_del2            =   0.0000000000000E+00
(PID.TID 0000.0001) %MON trAdv_CFL_u_max              =   1.7455696373330E-09
(PID.TID 0000.0001) %MON trAdv_CFL_v_max              =   2.3164933554204E-09
(PID.TID 0000.0001) %MON trAdv_CFL_w_max              =   7.8359945257511E-15
(PID.TID 0000.0001) %MON advcfl_uvel_max              =   1.7534550327269E-09
(PID.TID 0000.0001) %MON advcfl_vvel_max              =   2.3085706501933E-09
(PID.TID 0000.0001) %MON advcfl_wvel_max              =   1.5645544966580E-14
(PID.TID 0000.0001) %MON advcfl_W_hf_max              =   0.0000000000000E+00
(PID.TID 0000.0001) %MON pe_b_mean                    =   1.3191418560363E-21
(PID.TID 0000.0001) %MON ke_max                       =   2.3594688628414E-18
(PID.TID 0000.0001) %MON ke_mean                      =   4.8265215204883E-19
(PID.TID 0000.0001) %MON ke_vol                       =   7.5645000000000E+15
(PID.TID 0000.0001) %MON vort_r_min                   =  -6.8287882663592E-14
(PID.TID 0000.0001) %MON vort_r_max                   =   9.2233215285933E-14
(PID.TID 0000.0001) %MON vort_a_mean                  =   8.2300000000000E-05
(PID.TID 0000.0001) %MON vort_a_sd                    =   7.1297555115609E-06
(PID.TID 0000.0001) %MON vort_p_mean                  =   8.3303658536585E-05
(PID.TID 0000.0001) %MON vort_p_sd                    =   1.7411470229799E-05
(PID.TID 0000.0001) %MON surfExpan_theta_mean         =  -2.5012246356003E-28
(PID.TID 0000.0001) %MON surfExpan_salt_mean          =  -4.4390819416710E-28
(PID.TID 0000.0001) // =======================================================
(PID.TID 0000.0001) // End MONITOR dynamic field statistics
(PID.TID 0000.0001) // =======================================================
 cg2d: Sum(rhs),rhsMax =  -1.75160976754253E-02  2.32244127017716E-10
 cg2d: Sum(rhs),rhsMax =  -1.75025608936518E-02  2.32423746583132E-10
 cg2d: Sum(rhs),rhsMax =  -1.74872759886118E-02  2.32626896460389E-10
 cg2d: Sum(rhs),rhsMax =  -1.74745726227144E-02  2.32796005529961E-10
 cg2d: Sum(rhs),rhsMax =  -1.74646713168302E-02  2.32927983337745E-10
 cg2d: Sum(rhs),rhsMax =  -1.74554315059715E-02  2.33051278708349E-10
 cg2d: Sum(rhs),rhsMax =  -1.74463942468094E-02  2.33171997419632E-10
 cg2d: Sum(rhs),rhsMax =  -1.74401558521498E-02  2.33255401641228E-10
 cg2d: Sum(rhs),rhsMax =  -1.74367093548669E-02  2.33301504295268E-10
 cg2d: Sum(rhs),rhsMax =  -1.74316467018589E-02  2.33369259768145E-10
 cg2d: Sum(rhs),rhsMax =  -1.74291100164846E-02  2.33403223117506E-10
 cg2d: Sum(rhs),rhsMax =  -1.74293695769435E-02  2.33399745230138E-10
 cg2d: Sum(rhs),rhsMax =  -1.74304618665364E-02  2.33385117256611E-10
 cg2d: Sum(rhs),rhsMax =  -1.74316776173719E-02  2.33368838117043E-10
 cg2d: Sum(rhs),rhsMax =  -1.74356991713379E-02  2.33315009775580E-10
 cg2d: Sum(rhs),rhsMax =  -1.74425270055935E-02  2.33223677557730E-10
(PID.TID 0000.0001)      cg2d_init_res =   3.13799432978004E-01
(PID.TID 0000.0001)      cg2d_iters(min,last) =      -1     537
(PID.TID 0000.0001)      cg2d_last_res =   8.17801391182397E-08
(PID.TID 0000.0001) // =======================================================
(PID.TID 0000.0001) // Begin MONITOR dynamic field statistics
(PID.TID 0000.0001) // =======================================================
(PID.TID 0000.0001) %MON time_tsnumber                =                  4368
(PID.TID 0000.0001) %MON time_secondsf                =   2.3587200000000E+07
(PID.TID 0000.0001) %MON dynstat_eta_max              =   2.9162192516571E-09
(PID.TID 0000.0001) %MON dynstat_eta_min              =  -1.8139161522528E-09
(PID.TID 0000.0001) %MON dynstat_eta_mean             =   3.9203906190799E-13
(PID.TID 0000.0001) %MON dynstat_eta_sd               =   1.1571108467293E-09
(PID.TID 0000.0001) %MON dynstat_eta_del2             =   8.3933415878400E-15
(PID.TID 0000.0001) %MON dynstat_uvel_max             =   1.5356950851386E-09
(PID.TID 0000.0001) %MON dynstat_uvel_min             =  -1.7231489749383E-09
(PID.TID 0000.0001) %MON dynstat_uvel_mean            =  -5.2089130376916E-14
(PID.TID 0000.0001) %MON dynstat_uvel_sd              =   4.3822913427477E-10
(PID.TID 0000.0001) %MON dynstat_uvel_del2            =   3.8980775604891E-14
(PID.TID 0000.0001) %MON dynstat_vvel_max             =   2.0057941031034E-09
(PID.TID 0000.0001) %MON dynstat_vvel_min             =  -2.2056540752649E-09
(PID.TID 0000.0001) %MON dynstat_vvel_mean            =   2.8041386033323E-15
(PID.TID 0000.0001) %MON dynstat_vvel_sd              =   8.7581538417869E-10
(PID.TID 0000.0001) %MON dynstat_vvel_del2            =   2.9847260169502E-14
(PID.TID 0000.0001) %MON dynstat_wvel_max             =   7.0250279732287E-15
(PID.TID 0000.0001) %MON dynstat_wvel_min             =  -4.6407386167235E-15
(PID.TID 0000.0001) %MON dynstat_wvel_mean            =  -1.1192098846315E-28
(PID.TID 0000.0001) %MON dynstat_wvel_sd              =   2.9466752877522E-15
(PID.TID 0000.0001) %MON dynstat_wvel_del2            =   1.8324781210325E-20
(PID.TID 0000.0001) %MON dynstat_theta_max            =   2.0000000000000E+01
(PID.TID 0000.0001) %MON dynstat_theta_min            =   2.0000000000000E+01
(PID.TID 0000.0001) %MON dynstat_theta_mean           =   2.0000000000000E+01
(PID.TID 0000.0001) %MON dynstat_theta_sd             =   0.0000000000000E+00
(PID.TID 0000.0001) %MON dynstat_theta_del2           =   0.0000000000000E+00
(PID.TID 0000.0001) %MON dynstat_salt_max             =   3.0000000000000E+01
(PID.TID 0000.0001) %MON dynstat_salt_min             =   3.0000000000000E+01
(PID.TID 0000.0001) %MON dynstat_salt_mean            =   3.0000000000000E+01
(PID.TID 0000.0001) %MON dynstat_salt_sd              =   0.0000000000000E+00
(PID.TID 0000.0001) %MON dynstat_salt_del2            =   0.0000000000000E+00
(PID.TID 0000.0001) %MON trAdv_CFL_u_max              =   1.8551260880178E-09
(PID.TID 0000.0001) %MON trAdv_CFL_v_max              =   2.3749572092251E-09
(PID.TID 0000.0001) %MON trAdv_CFL_w_max              =   7.6035352304382E-15
(PID.TID 0000.0001) %MON advcfl_uvel_max              =   1.8610008929334E-09
(PID.TID 0000.0001) %MON advcfl_vvel_max              =   2.3821064012861E-09
(PID.TID 0000.0001) %MON advcfl_wvel_max              =   1.5174060422174E-14
(PID.TID 0000.0001) %MON advcfl_W_hf_max              =   0.0000000000000E+00
(PID.TID 0000.0001) %MON pe_b_mean                    =   1.3134664576724E-21
(PID.TID 0000.0001) %MON ke_max                       =   2.5641212178559E-18
(PID.TID 0000.0001) %MON ke_mean                      =   4.7759929712001E-19
(PID.TID 0000.0001) %MON ke_vol                       =   7.5645000000000E+15
(PID.TID 0000.0001) %MON vort_r_min                   =  -6.5948056729687E-14
(PID.TID 0000.0001) %MON vort_r_max                   =   9.5260845485930E-14
(PID.TID 0000.0001) %MON vort_a_mean                  =   8.2300000000000E-05
(PID.TID 0000.0001) %MON vort_a_sd                    =   7.1297555115607E-06
(PID.TID 0000.0001) %MON vort_p_mean                  =   8.3303658536586E-05
(PID.TID 0000.0001) %MON vort_p_sd                    =   1.7411470229810E-05
(PID.TID 0000.0001) %MON surfExpan_theta_mean         =  -2.1569035590339E-27
(PID.TID 0000.0001) %MON surfExpan_salt_mean          =  -3.2543646608980E-27
(PID.TID 0000.0001) // =======================================================
(PID.TID 0000.0001) // End MONITOR dynamic field statistics
(PID.TID 0000.0001) // =======================================================
 cg2d: Sum(rhs),rhsMax =  -1.74480524415497E-02  2.33149818820151E-10
 cg2d: Sum(rhs),rhsMax =  -1.74559048205152E-02  2.33044937018059E-10
 cg2d: Sum(rhs),rhsMax =  -1.74665811630058E-02  2.32902488096475E-10
 cg2d: Sum(rhs),rhsMax =  -1.74784800459922E-02  2.32743932710014E-10
 cg2d: Sum(rhs),rhsMax =  -1.74902459046421E-02  2.32587361992614E-10
 cg2d: Sum(rhs),rhsMax =  -1.75048591704469E-02  2.32393193693508E-10
 cg2d: Sum(rhs),rhsMax =  -1.75223281756252E-02  2.32161506166826E-10
 cg2d: Sum(rhs),rhsMax =  -1.75390372567661E-02  2.31940329120926E-10
 cg2d: Sum(rhs),rhsMax =  -1.75576911076416E-02  2.31693906895889E-10
 cg2d: Sum(rhs),rhsMax =  -1.75792332320658E-02  2.31409980682024E-10
 cg2d: Sum(rhs),rhsMax =  -1.76026523192494E-02  2.31102104572946E-10
 cg2d: Sum(rhs),rhsMax =  -1.76254668680857E-02  2.30802962764333E-10
 cg2d: Sum(rhs),rhsMax =  -1.76512088471687E-02  2.30466365421205E-10
 cg2d: Sum(rhs),rhsMax =  -1.76798950853354E-02  2.30092424350794E-10
 cg2d: Sum(rhs),rhsMax =  -1.77086402009348E-02  2.29718930979809E-10
 cg2d: Sum(rhs),rhsMax =  -1.77387271489044E-02  2.29329299294017E-10
(PID.TID 0000.0001)      cg2d_init_res =   3.19548920008596E-01
(PID.TID 0000.0001)      cg2d_iters(min,last) =      -1     536
(PID.TID 0000.0001)      cg2d_last_res =   9.90436082098254E-08
(PID.TID 0000.0001) // =======================================================
(PID.TID 0000.0001) // Begin MONITOR dynamic field statistics
(PID.TID 0000.0001) // =======================================================
(PID.TID 0000.0001) %MON time_tsnumber                =                  4384
(PID.TID 0000.0001) %MON time_secondsf                =   2.3673600000000E+07
(PID.TID 0000.0001) %MON dynstat_eta_max              =   2.9372110311797E-09
(PID.TID 0000.0001) %MON dynstat_eta_min              =  -1.7493389311137E-09
(PID.TID 0000.0001) %MON dynstat_eta_mean             =   3.9203902079242E-13
(PID.TID 0000.0001) %MON dynstat_eta_sd               =   1.1523697971862E-09
(PID.TID 0000.0001) %MON dynstat_eta_del2             =   8.4044516119061E-15
(PID.TID 0000.0001) %MON dynstat_uvel_max             =   1.5772118555509E-09
(PID.TID 0000.0001) %MON dynstat_uvel_min             =  -1.7894866522195E-09
(PID.TID 0000.0001) %MON dynstat_uvel_mean            =  -7.9335824140131E-14
(PID.TID 0000.0001) %MON dynstat_uvel_sd              =   4.5287261811907E-10
(PID.TID 0000.0001) %MON dynstat_uvel_del2            =   3.8899445977590E-14
(PID.TID 0000.0001) %MON dynstat_vvel_max             =   1.8774788307066E-09
(PID.TID 0000.0001) %MON dynstat_vvel_min             =  -2.3013781556566E-09
(PID.TID 0000.0001) %MON dynstat_vvel_mean            =   3.5047230073332E-15
(PID.TID 0000.0001) %MON dynstat_vvel_sd              =   8.6241194768807E-10
(PID.TID 0000.0001) %MON dynstat_vvel_del2            =   3.2536010542232E-14
(PID.TID 0000.0001) %MON dynstat_wvel_max             =   6.7676636586467E-15
(PID.TID 0000.0001) %MON dynstat_wvel_min             =  -5.2854280785386E-15
(PID.TID 0000.0001) %MON dynstat_wvel_mean            =   2.4680948026087E-28
(PID.TID 0000.0001) %MON dynstat_wvel_sd              =   2.9545414997612E-15
(PID.TID 0000.0001) %MON dynstat_wvel_del2            =   1.8376839756325E-20
(PID.TID 0000.0001) %MON dynstat_theta_max            =   2.0000000000000E+01
(PID.TID 0000.0001) %MON dynstat_theta_min            =   2.0000000000000E+01
(PID.TID 0000.0001) %MON dynstat_theta_mean           =   2.0000000000000E+01
(PID.TID 0000.0001) %MON dynstat_theta_sd             =   0.0000000000000E+00
(PID.TID 0000.0001) %MON dynstat_theta_del2           =   0.0000000000000E+00
(PID.TID 0000.0001) %MON dynstat_salt_max             =   3.0000000000000E+01
(PID.TID 0000.0001) %MON dynstat_salt_min             =   3.0000000000000E+01
(PID.TID 0000.0001) %MON dynstat_salt_mean            =   3.0000000000000E+01
(PID.TID 0000.0001) %MON dynstat_salt_sd              =   0.0000000000000E+00
(PID.TID 0000.0001) %MON dynstat_salt_del2            =   0.0000000000000E+00
(PID.TID 0000.0001) %MON trAdv_CFL_u_max              =   1.9291233982920E-09
(PID.TID 0000.0001) %MON trAdv_CFL_v_max              =   2.4797918604512E-09
(PID.TID 0000.0001) %MON trAdv_CFL_w_max              =   7.3275437744491E-15
(PID.TID 0000.0001) %MON advcfl_uvel_max              =   1.9326455843971E-09
(PID.TID 0000.0001) %MON advcfl_vvel_max              =   2.4854884081091E-09
(PID.TID 0000.0001) %MON advcfl_wvel_max              =   1.4618153502677E-14
(PID.TID 0000.0001) %MON advcfl_W_hf_max              =   0.0000000000000E+00
(PID.TID 0000.0001) %MON pe_b_mean                    =   1.3027251334016E-21
(PID.TID 0000.0001) %MON ke_max                       =   2.7742969472537E-18
(PID.TID 0000.0001) %MON ke_mean                      =   4.7249543822274E-19
(PID.TID 0000.0001) %MON ke_vol                       =   7.5645000000000E+15
(PID.TID 0000.0001) %MON vort_r_min                   =  -6.0566098247669E-14
(PID.TID 0000.0001) %MON vort_r_max                   =   9.6082458118692E-14
(PID.TID 0000.0001) %MON vort_a_mean                  =   8.2300000000000E-05
(PID.TID 0000.0001) %MON vort_a_sd                    =   7.1297555115641E-06
(PID.TID 0000.0001) %MON vort_p_mean                  =   8.3303658536585E-05
(PID.TID 0000.0001) %MON vort_p_sd                    =   1.7411470229818E-05
(PID.TID 0000.0001) %MON surfExpan_theta_mean         =   4.8953028786341E-27
(PID.TID 0000.0001) %MON surfExpan_salt_mean          =   7.3243732290137E-27
(PID.TID 0000.0001) // =======================================================
(PID.TID 0000.0001) // End MONITOR dynamic field statistics
(PID.TID 0000.0001) // =======================================================
 cg2d: Sum(rhs),rhsMax =  -1.77718080095010E-02  2.28902418771288E-10
 cg2d: Sum(rhs),rhsMax =  -1.78077334637936E-02  2.28440627915742E-10
 cg2d: Sum(rhs),rhsMax =  -1.78423306890883E-02  2.27997667974715E-10
 cg2d: Sum(rhs),rhsMax =  -1.78799793148774E-02  2.27517587672210E-10
 cg2d: Sum(rhs),rhsMax =  -1.79207056855050E-02  2.27000532428036E-10
 cg2d: Sum(rhs),rhsMax =  -1.79626381450687E-02  2.26470614661569E-10
 cg2d: Sum(rhs),rhsMax =  -1.80050504584535E-02  2.25937143644415E-10
 cg2d: Sum(rhs),rhsMax =  -1.80506104837118E-02  2.25366872882184E-10
 cg2d: Sum(rhs),rhsMax =  -1.80993512072799E-02  2.24759968320380E-10
 cg2d: Sum(rhs),rhsMax =  -1.81477483141810E-02  2.24160567830455E-10
 cg2d: Sum(rhs),rhsMax =  -1.81983727402378E-02  2.23536993484316E-10
 cg2d: Sum(rhs),rhsMax =  -1.82522617994969E-02  2.22877007261898E-10
 cg2d: Sum(rhs),rhsMax =  -1.83088934226300E-02  2.22187619317076E-10
 cg2d: Sum(rhs),rhsMax =  -1.83648419406228E-02  2.21510722113256E-10
 cg2d: Sum(rhs),rhsMax =  -1.84241499382836E-02  2.20797668650016E-10
 cg2d: Sum(rhs),rhsMax =  -1.84868625718681E-02  2.20048658181500E-10
(PID.TID 0000.0001)      cg2d_init_res =   3.32650249972799E-01
(PID.TID 0000.0001)      cg2d_iters(min,last) =      -1     539
(PID.TID 0000.0001)      cg2d_last_res =   9.74209392874869E-08
(PID.TID 0000.0001) // =======================================================
(PID.TID 0000.0001) // Begin MONITOR dynamic field statistics
(PID.TID 0000.0001) // =======================================================
(PID.TID 0000.0001) %MON time_tsnumber                =                  4400
(PID.TID 0000.0001) %MON time_secondsf                =   2.3760000000000E+07
(PID.TID 0000.0001) %MON dynstat_eta_max              =   2.9248488592637E-09
(PID.TID 0000.0001) %MON dynstat_eta_min              =  -1.6505141968874E-09
(PID.TID 0000.0001) %MON dynstat_eta_mean             =   3.9203896430546E-13
(PID.TID 0000.0001) %MON dynstat_eta_sd               =   1.1462574313272E-09
(PID.TID 0000.0001) %MON dynstat_eta_del2             =   8.4420533571546E-15
(PID.TID 0000.0001) %MON dynstat_uvel_max             =   1.5891050959314E-09
(PID.TID 0000.0001) %MON dynstat_uvel_min             =  -1.8196709047752E-09
(PID.TID 0000.0001) %MON dynstat_uvel_mean            =  -1.0234894205441E-13
(PID.TID 0000.0001) %MON dynstat_uvel_sd              =   4.6714544609255E-10
(PID.TID 0000.0001) %MON dynstat_uvel_del2            =   3.8402622374418E-14
(PID.TID 0000.0001) %MON dynstat_vvel_max             =   1.7636073656455E-09
(PID.TID 0000.0001) %MON dynstat_vvel_min             =  -2.3712211188508E-09
(PID.TID 0000.0001) %MON dynstat_vvel_mean            =   4.5535146301935E-15
(PID.TID 0000.0001) %MON dynstat_vvel_sd              =   8.4864286321631E-10
(PID.TID 0000.0001) %MON dynstat_vvel_del2            =   3.5330450285512E-14
(PID.TID 0000.0001) %MON dynstat_wvel_max             =   6.4843361907707E-15
(PID.TID 0000.0001) %MON dynstat_wvel_min             =  -5.8713706729829E-15
(PID.TID 0000.0001) %MON dynstat_wvel_mean            =   2.6561116840101E-28
(PID.TID 0000.0001) %MON dynstat_wvel_sd              =   2.9655488926401E-15
(PID.TID 0000.0001) %MON dynstat_wvel_del2            =   1.8384289619566E-20
(PID.TID 0000.0001) %MON dynstat_theta_max            =   2.0000000000000E+01
(PID.TID 0000.0001) %MON dynstat_theta_min            =   2.0000000000000E+01
(PID.TID 0000.0001) %MON dynstat_theta_mean           =   2.0000000000000E+01
(PID.TID 0000.0001) %MON dynstat_theta_sd             =   0.0000000000000E+00
(PID.TID 0000.0001) %MON dynstat_theta_del2           =   0.0000000000000E+00
(PID.TID 0000.0001) %MON dynstat_salt_max             =   3.0000000000000E+01
(PID.TID 0000.0001) %MON dynstat_salt_min             =   3.0000000000000E+01
(PID.TID 0000.0001) %MON dynstat_salt_mean            =   3.0000000000000E+01
(PID.TID 0000.0001) %MON dynstat_salt_sd              =   0.0000000000000E+00
(PID.TID 0000.0001) %MON dynstat_salt_del2            =   0.0000000000000E+00
(PID.TID 0000.0001) %MON trAdv_CFL_u_max              =   1.9643791597521E-09
(PID.TID 0000.0001) %MON trAdv_CFL_v_max              =   2.5568769667929E-09
(PID.TID 0000.0001) %MON trAdv_CFL_w_max              =   7.0221670066761E-15
(PID.TID 0000.0001) %MON advcfl_uvel_max              =   1.9652445771572E-09
(PID.TID 0000.0001) %MON advcfl_vvel_max              =   2.5609188083589E-09
(PID.TID 0000.0001) %MON advcfl_wvel_max              =   1.4006166172065E-14
(PID.TID 0000.0001) %MON advcfl_W_hf_max              =   0.0000000000000E+00
(PID.TID 0000.0001) %MON pe_b_mean                    =   1.2889420337685E-21
(PID.TID 0000.0001) %MON ke_max                       =   2.9258535394706E-18
(PID.TID 0000.0001) %MON ke_mean                      =   4.6730243690916E-19
(PID.TID 0000.0001) %MON ke_vol                       =   7.5645000000000E+15
(PID.TID 0000.0001) %MON vort_r_min                   =  -5.2418740937181E-14
(PID.TID 0000.0001) %MON vort_r_max                   =   9.4594956841024E-14
(PID.TID 0000.0001) %MON vort_a_mean                  =   8.2300000000001E-05
(PID.TID 0000.0001) %MON vort_a_sd                    =   7.1297555115535E-06
(PID.TID 0000.0001) %MON vort_p_mean                  =   8.3303658536586E-05
(PID.TID 0000.0001) %MON vort_p_sd                    =   1.7411470229817E-05
(PID.TID 0000.0001) %MON surfExpan_theta_mean         =   5.3393700769370E-27
(PID.TID 0000.0001) %MON surfExpan_salt_mean          =   7.9994846340780E-27
(PID.TID 0000.0001) // =======================================================
(PID.TID 0000.0001) // End MONITOR dynamic field statistics
(PID.TID 0000.0001) // =======================================================
 cg2d: Sum(rhs),rhsMax =  -1.85509742409669E-02  2.19288173237820E-10
 cg2d: Sum(rhs),rhsMax =  -1.86160051836142E-02  2.18522135261647E-10
 cg2d: Sum(rhs),rhsMax =  -1.86845530297035E-02  2.17720442356677E-10
 cg2d: Sum(rhs),rhsMax =  -1.87566716086824E-02  2.16883313877971E-10
 cg2d: Sum(rhs),rhsMax =  -1.88289395674641E-02  2.16050884193966E-10
 cg2d: Sum(rhs),rhsMax =  -1.89036780294342E-02  2.15196692737383E-10
 cg2d: Sum(rhs),rhsMax =  -1.89821195263334E-02  2.14307413885429E-10
 cg2d: Sum(rhs),rhsMax =  -1.90642019762676E-02  2.13384694247668E-10
 cg2d: Sum(rhs),rhsMax =  -1.91455303435461E-02  2.12478254609011E-10
 cg2d: Sum(rhs),rhsMax =  -1.92307101847525E-02  2.11537108810080E-10
 cg2d: Sum(rhs),rhsMax =  -1.93198121334015E-02  2.10561508958632E-10
 cg2d: Sum(rhs),rhsMax =  -1.94115616475802E-02  2.09566279861804E-10
 cg2d: Sum(rhs),rhsMax =  -1.95039467965548E-02  2.08573616744408E-10
 cg2d: Sum(rhs),rhsMax =  -1.96004285263597E-02  2.07546926146679E-10
 cg2d: Sum(rhs),rhsMax =  -1.97010897594584E-02  2.06486479098382E-10
 cg2d: Sum(rhs),rhsMax =  -1.98035195705939E-02  2.05418466605832E-10
(PID.TID 0000.0001)      cg2d_init_res =   3.54942297017996E-01
(PID.TID 0000.0001)      cg2d_iters(min,last) =      -1     550
(PID.TID 0000.0001)      cg2d_last_res =   9.49260840163343E-08
(PID.TID 0000.0001) // =======================================================
(PID.TID 0000.0001) // Begin MONITOR dynamic field statistics
(PID.TID 0000.0001) // =======================================================
(PID.TID 0000.0001) %MON time_tsnumber                =                  4416
(PID.TID 0000.0001) %MON time_secondsf                =   2.3846400000000E+07
(PID.TID 0000.0001) %MON dynstat_eta_max              =   2.8841451470946E-09
(PID.TID 0000.0001) %MON dynstat_eta_min              =  -1.5198923530399E-09
(PID.TID 0000.0001) %MON dynstat_eta_mean             =   3.9203890011324E-13
(PID.TID 0000.0001) %MON dynstat_eta_sd               =   1.1398887788057E-09
(PID.TID 0000.0001) %MON dynstat_eta_del2             =   8.5044208621336E-15
(PID.TID 0000.0001) %MON dynstat_uvel_max             =   1.5688605084824E-09
(PID.TID 0000.0001) %MON dynstat_uvel_min             =  -1.8110562109196E-09
(PID.TID 0000.0001) %MON dynstat_uvel_mean            =  -1.1984118007367E-13
(PID.TID 0000.0001) %MON dynstat_uvel_sd              =   4.7813487456291E-10
(PID.TID 0000.0001) %MON dynstat_uvel_del2            =   3.7511530071067E-14
(PID.TID 0000.0001) %MON dynstat_vvel_max             =   1.6393993055932E-09
(PID.TID 0000.0001) %MON dynstat_vvel_min             =  -2.4146093478034E-09
(PID.TID 0000.0001) %MON dynstat_vvel_mean            =   5.8798766390659E-15
(PID.TID 0000.0001) %MON dynstat_vvel_sd              =   8.3614051843809E-10
(PID.TID 0000.0001) %MON dynstat_vvel_del2            =   3.7989809974695E-14
(PID.TID 0000.0001) %MON dynstat_wvel_max             =   6.1996182429414E-15
(PID.TID 0000.0001) %MON dynstat_wvel_min             =  -6.3798015864647E-15
(PID.TID 0000.0001) %MON dynstat_wvel_mean            =  -1.1210474528783E-28
(PID.TID 0000.0001) %MON dynstat_wvel_sd              =   2.9762680294527E-15
(PID.TID 0000.0001) %MON dynstat_wvel_del2            =   1.8335283660524E-20
(PID.TID 0000.0001) %MON dynstat_theta_max            =   2.0000000000000E+01
(PID.TID 0000.0001) %MON dynstat_theta_min            =   2.0000000000000E+01
(PID.TID 0000.0001) %MON dynstat_theta_mean           =   2.0000000000000E+01
(PID.TID 0000.0001) %MON dynstat_theta_sd             =   0.0000000000000E+00
(PID.TID 0000.0001) %MON dynstat_theta_del2           =   0.0000000000000E+00
(PID.TID 0000.0001) %MON dynstat_salt_max             =   3.0000000000000E+01
(PID.TID 0000.0001) %MON dynstat_salt_min             =   3.0000000000000E+01
(PID.TID 0000.0001) %MON dynstat_salt_mean            =   3.0000000000000E+01
(PID.TID 0000.0001) %MON dynstat_salt_sd              =   0.0000000000000E+00
(PID.TID 0000.0001) %MON dynstat_salt_del2            =   0.0000000000000E+00
(PID.TID 0000.0001) %MON trAdv_CFL_u_max              =   1.9577957182860E-09
(PID.TID 0000.0001) %MON trAdv_CFL_v_max              =   2.6055580555590E-09
(PID.TID 0000.0001) %MON trAdv_CFL_w_max              =   6.7143613031506E-15
(PID.TID 0000.0001) %MON advcfl_uvel_max              =   1.9559407077932E-09
(PID.TID 0000.0001) %MON advcfl_vvel_max              =   2.6077780956277E-09
(PID.TID 0000.0001) %MON advcfl_wvel_max              =   1.3780371426764E-14
(PID.TID 0000.0001) %MON advcfl_W_hf_max              =   0.0000000000000E+00
(PID.TID 0000.0001) %MON pe_b_mean                    =   1.2746589966886E-21
(PID.TID 0000.0001) %MON ke_max                       =   3.0100830303826E-18
(PID.TID 0000.0001) %MON ke_mean                      =   4.6198631120875E-19
(PID.TID 0000.0001) %MON ke_vol                       =   7.5645000000000E+15
(PID.TID 0000.0001) %MON vort_r_min                   =  -6.0431346596186E-14
(PID.TID 0000.0001) %MON vort_r_max                   =   9.0844386451437E-14
(PID.TID 0000.0001) %MON vort_a_mean                  =   8.2300000000000E-05
(PID.TID 0000.0001) %MON vort_a_sd                    =   7.1297555115600E-06
(PID.TID 0000.0001) %MON vort_p_mean                  =   8.3303658536586E-05
(PID.TID 0000.0001) %MON vort_p_sd                    =   1.7411470229815E-05
(PID.TID 0000.0001) %MON surfExpan_theta_mean         =  -2.2226975388550E-27
(PID.TID 0000.0001) %MON surfExpan_salt_mean          =  -3.3356425082511E-27
(PID.TID 0000.0001) // =======================================================
(PID.TID 0000.0001) // End MONITOR dynamic field statistics
(PID.TID 0000.0001) // =======================================================
 cg2d: Sum(rhs),rhsMax =  -1.99079282541012E-02  2.04341131607453E-10
 cg2d: Sum(rhs),rhsMax =  -2.00167214867173E-02  2.03230511571397E-10
 cg2d: Sum(rhs),rhsMax =  -2.01299964154624E-02  2.02086896734407E-10
 cg2d: Sum(rhs),rhsMax =  -2.02442834601779E-02  2.00946033594029E-10
 cg2d: Sum(rhs),rhsMax =  -2.03618514790824E-02  1.99785782339916E-10
 cg2d: Sum(rhs),rhsMax =  -2.04841425940262E-02  1.98593051530492E-10
 cg2d: Sum(rhs),rhsMax =  -2.06112705842712E-02  1.97368149911804E-10
 cg2d: Sum(rhs),rhsMax =  -2.07387883481377E-02  1.96154579103899E-10
 cg2d: Sum(rhs),rhsMax =  -2.08708530914720E-02  1.94913367131590E-10
 cg2d: Sum(rhs),rhsMax =  -2.10080397026281E-02  1.93640542601155E-10
 cg2d: Sum(rhs),rhsMax =  -2.11501432857796E-02  1.92339508440185E-10
 cg2d: Sum(rhs),rhsMax =  -2.12928408730640E-02  1.91050510232140E-10
 cg2d: Sum(rhs),rhsMax =  -2.14409824015799E-02  1.89730488297980E-10
 cg2d: Sum(rhs),rhsMax =  -2.15947166974123E-02  1.88379781037863E-10
 cg2d: Sum(rhs),rhsMax =  -2.17531847083304E-02  1.87007466070062E-10
 cg2d: Sum(rhs),rhsMax =  -2.19133016219188E-02  1.85641030381969E-10
(PID.TID 0000.0001)      cg2d_init_res =   3.90152001908243E-01
(PID.TID 0000.0001)      cg2d_iters(min,last) =      -1     553
(PID.TID 0000.0001)      cg2d_last_res =   8.87230078100487E-08
(PID.TID 0000.0001) // =======================================================
(PID.TID 0000.0001) // Begin MONITOR dynamic field statistics
(PID.TID 0000.0001) // =======================================================
(PID.TID 0000.0001) %MON time_tsnumber                =                  4432
(PID.TID 0000.0001) %MON time_secondsf                =   2.3932800000000E+07
(PID.TID 0000.0001) %MON dynstat_eta_max              =   2.8196325555356E-09
(PID.TID 0000.0001) %MON dynstat_eta_min              =  -1.6259147922361E-09
(PID.TID 0000.0001) %MON dynstat_eta_mean             =   3.9203882702754E-13
(PID.TID 0000.0001) %MON dynstat_eta_sd               =   1.1343802522306E-09
(PID.TID 0000.0001) %MON dynstat_eta_del2             =   8.5862349021584E-15
(PID.TID 0000.0001) %MON dynstat_uvel_max             =   1.5149619059360E-09
(PID.TID 0000.0001) %MON dynstat_uvel_min             =  -1.7616270385042E-09
(PID.TID 0000.0001) %MON dynstat_uvel_mean            =  -1.3083402586503E-13
(PID.TID 0000.0001) %MON dynstat_uvel_sd              =   4.8359151318008E-10
(PID.TID 0000.0001) %MON dynstat_uvel_del2            =   3.6330707540104E-14
(PID.TID 0000.0001) %MON dynstat_vvel_max             =   1.5021804806132E-09
(PID.TID 0000.0001) %MON dynstat_vvel_min             =  -2.4312372033488E-09
(PID.TID 0000.0001) %MON dynstat_vvel_mean            =   7.3933006615460E-15
(PID.TID 0000.0001) %MON dynstat_vvel_sd              =   8.2638424619414E-10
(PID.TID 0000.0001) %MON dynstat_vvel_del2            =   4.0296738758782E-14
(PID.TID 0000.0001) %MON dynstat_wvel_max             =   5.9248416753310E-15
(PID.TID 0000.0001) %MON dynstat_wvel_min             =  -6.7974691544959E-15
(PID.TID 0000.0001) %MON dynstat_wvel_mean            =   2.3389910586386E-28
(PID.TID 0000.0001) %MON dynstat_wvel_sd              =   2.9836142522645E-15
(PID.TID 0000.0001) %MON dynstat_wvel_del2            =   1.8243536517265E-20
(PID.TID 0000.0001) %MON dynstat_theta_max            =   2.0000000000000E+01
(PID.TID 0000.0001) %MON dynstat_theta_min            =   2.0000000000000E+01
(PID.TID 0000.0001) %MON dynstat_theta_mean           =   2.0000000000000E+01
(PID.TID 0000.0001) %MON dynstat_theta_sd             =   0.0000000000000E+00
(PID.TID 0000.0001) %MON dynstat_theta_del2           =   0.0000000000000E+00
(PID.TID 0000.0001) %MON dynstat_salt_max             =   3.0000000000000E+01
(PID.TID 0000.0001) %MON dynstat_salt_min             =   3.0000000000000E+01
(PID.TID 0000.0001) %MON dynstat_salt_mean            =   3.0000000000000E+01
(PID.TID 0000.0001) %MON dynstat_salt_sd              =   0.0000000000000E+00
(PID.TID 0000.0001) %MON dynstat_salt_del2            =   0.0000000000000E+00
(PID.TID 0000.0001) %MON trAdv_CFL_u_max              =   1.9071919034596E-09
(PID.TID 0000.0001) %MON trAdv_CFL_v_max              =   2.6254626458663E-09
(PID.TID 0000.0001) %MON trAdv_CFL_w_max              =   6.4175519263743E-15
(PID.TID 0000.0001) %MON advcfl_uvel_max              =   1.9025572015845E-09
(PID.TID 0000.0001) %MON advcfl_vvel_max              =   2.6257361796167E-09
(PID.TID 0000.0001) %MON advcfl_wvel_max              =   1.4682533373711E-14
(PID.TID 0000.0001) %MON advcfl_W_hf_max              =   0.0000000000000E+00
(PID.TID 0000.0001) %MON pe_b_mean                    =   1.2623691548487E-21
(PID.TID 0000.0001) %MON ke_max                       =   3.0252900270754E-18
(PID.TID 0000.0001) %MON ke_mean                      =   4.5652248847909E-19
(PID.TID 0000.0001) %MON ke_vol                       =   7.5645000000000E+15
(PID.TID 0000.0001) %MON vort_r_min                   =  -7.0961245156948E-14
(PID.TID 0000.0001) %MON vort_r_max                   =   8.4852291566222E-14
(PID.TID 0000.0001) %MON vort_a_mean                  =   8.2300000000000E-05
(PID.TID 0000.0001) %MON vort_a_sd                    =   7.1297555115587E-06
(PID.TID 0000.0001) %MON vort_p_mean                  =   8.3303658536586E-05
(PID.TID 0000.0001) %MON vort_p_sd                    =   1.7411470229804E-05
(PID.TID 0000.0001) %MON surfExpan_theta_mean         =   4.6608188077522E-27
(PID.TID 0000.0001) %MON surfExpan_salt_mean          =   6.9866501242400E-27
(PID.TID 0000.0001) // =======================================================
(PID.TID 0000.0001) // End MONITOR dynamic field statistics
(PID.TID 0000.0001) // =======================================================
 cg2d: Sum(rhs),rhsMax =  -2.20793942769977E-02  1.84244539418269E-10
 cg2d: Sum(rhs),rhsMax =  -2.19490899966992E-02  1.85338333309182E-10
 cg2d: Sum(rhs),rhsMax =  -2.18219512343296E-02  1.86418145361884E-10
 cg2d: Sum(rhs),rhsMax =  -2.16998493975223E-02  1.87467088309425E-10
 cg2d: Sum(rhs),rhsMax =  -2.15826680580468E-02  1.88484920224214E-10
 cg2d: Sum(rhs),rhsMax =  -2.14702968722089E-02  1.89471405349078E-10
 cg2d: Sum(rhs),rhsMax =  -2.13626311937297E-02  1.90426314138821E-10
 cg2d: Sum(rhs),rhsMax =  -2.12592406629654E-02  1.91352402977019E-10
 cg2d: Sum(rhs),rhsMax =  -2.11603147985766E-02  1.92246943935101E-10
 cg2d: Sum(rhs),rhsMax =  -2.10658240256268E-02  1.93109319605715E-10
 cg2d: Sum(rhs),rhsMax =  -2.09756698854487E-02  1.93939326132124E-10
 cg2d: Sum(rhs),rhsMax =  -2.08897763062959E-02  1.94736766088635E-10
 cg2d: Sum(rhs),rhsMax =  -2.08080689629518E-02  1.95501448530462E-10
 cg2d: Sum(rhs),rhsMax =  -2.07304776110907E-02  1.96233189028826E-10
 cg2d: Sum(rhs),rhsMax =  -2.06569223352982E-02  1.96931941376287E-10
 cg2d: Sum(rhs),rhsMax =  -2.05869905868017E-02  1.97600901118515E-10
(PID.TID 0000.0001)      cg2d_init_res =   3.63357839715220E-01
(PID.TID 0000.0001)      cg2d_iters(min,last) =      -1     553
(PID.TID 0000.0001)      cg2d_last_res =   8.97705700409614E-08
(PID.TID 0000.0001) // =======================================================
(PID.TID 0000.0001) // Begin MONITOR dynamic field statistics
(PID.TID 0000.0001) // =======================================================
(PID.TID 0000.0001) %MON time_tsnumber                =                  4448
(PID.TID 0000.0001) %MON time_secondsf                =   2.4019200000000E+07
(PID.TID 0000.0001) %MON dynstat_eta_max              =   2.7328978338878E-09
(PID.TID 0000.0001) %MON dynstat_eta_min              =  -1.8849644656438E-09
(PID.TID 0000.0001) %MON dynstat_eta_mean             =   3.9203883916290E-13
(PID.TID 0000.0001) %MON dynstat_eta_sd               =   1.1306138741620E-09
(PID.TID 0000.0001) %MON dynstat_eta_del2             =   8.6787275611781E-15
(PID.TID 0000.0001) %MON dynstat_uvel_max             =   1.4282924722037E-09
(PID.TID 0000.0001) %MON dynstat_uvel_min             =  -1.6716460633400E-09
(PID.TID 0000.0001) %MON dynstat_uvel_mean            =  -1.3471000821271E-13
(PID.TID 0000.0001) %MON dynstat_uvel_sd              =   4.8224252820960E-10
(PID.TID 0000.0001) %MON dynstat_uvel_del2            =   3.5041072308001E-14
(PID.TID 0000.0001) %MON dynstat_vvel_max             =   1.3544713754634E-09
(PID.TID 0000.0001) %MON dynstat_vvel_min             =  -2.4210850411492E-09
(PID.TID 0000.0001) %MON dynstat_vvel_mean            =   8.9887426571343E-15
(PID.TID 0000.0001) %MON dynstat_vvel_sd              =   8.2031976549883E-10
(PID.TID 0000.0001) %MON dynstat_vvel_del2            =   4.2076279326874E-14
(PID.TID 0000.0001) %MON dynstat_wvel_max             =   5.6428295028277E-15
(PID.TID 0000.0001) %MON dynstat_wvel_min             =  -7.1174444665756E-15
(PID.TID 0000.0001) %MON dynstat_wvel_mean            =  -3.0696950752164E-28
(PID.TID 0000.0001) %MON dynstat_wvel_sd              =   2.9854413250879E-15
(PID.TID 0000.0001) %MON dynstat_wvel_del2            =   1.8105804110804E-20
(PID.TID 0000.0001) %MON dynstat_theta_max            =   2.0000000000000E+01
(PID.TID 0000.0001) %MON dynstat_theta_min            =   2.0000000000000E+01
(PID.TID 0000.0001) %MON dynstat_theta_mean           =   2.0000000000000E+01
(PID.TID 0000.0001) %MON dynstat_theta_sd             =   0.0000000000000E+00
(PID.TID 0000.0001) %MON dynstat_theta_del2           =   0.0000000000000E+00
(PID.TID 0000.0001) %MON dynstat_salt_max             =   3.0000000000000E+01
(PID.TID 0000.0001) %MON dynstat_salt_min             =   3.0000000000000E+01
(PID.TID 0000.0001) %MON dynstat_salt_mean            =   3.0000000000000E+01
(PID.TID 0000.0001) %MON dynstat_salt_sd              =   0.0000000000000E+00
(PID.TID 0000.0001) %MON dynstat_salt_del2            =   0.0000000000000E+00
(PID.TID 0000.0001) %MON trAdv_CFL_u_max              =   1.8127418906425E-09
(PID.TID 0000.0001) %MON trAdv_CFL_v_max              =   2.6165209312473E-09
(PID.TID 0000.0001) %MON trAdv_CFL_w_max              =   6.1137661554356E-15
(PID.TID 0000.0001) %MON advcfl_uvel_max              =   1.8053777484072E-09
(PID.TID 0000.0001) %MON advcfl_vvel_max              =   2.6147718444411E-09
(PID.TID 0000.0001) %MON advcfl_wvel_max              =   1.5373680047803E-14
(PID.TID 0000.0001) %MON advcfl_W_hf_max              =   0.0000000000000E+00
(PID.TID 0000.0001) %MON pe_b_mean                    =   1.2540004163052E-21
(PID.TID 0000.0001) %MON ke_max                       =   2.9738750024550E-18
(PID.TID 0000.0001) %MON ke_mean                      =   4.5090078458914E-19
(PID.TID 0000.0001) %MON ke_vol                       =   7.5645000000000E+15
(PID.TID 0000.0001) %MON vort_r_min                   =  -7.8966663269703E-14
(PID.TID 0000.0001) %MON vort_r_max                   =   7.6848184966645E-14
(PID.TID 0000.0001) %MON vort_a_mean                  =   8.2300000000000E-05
(PID.TID 0000.0001) %MON vort_a_sd                    =   7.1297555115617E-06
(PID.TID 0000.0001) %MON vort_p_mean                  =   8.3303658536585E-05
(PID.TID 0000.0001) %MON vort_p_sd                    =   1.7411470229789E-05
(PID.TID 0000.0001) %MON surfExpan_theta_mean         =  -6.1397262823764E-27
(PID.TID 0000.0001) %MON surfExpan_salt_mean          =  -9.2050578406870E-27
(PID.TID 0000.0001) // =======================================================
(PID.TID 0000.0001) // End MONITOR dynamic field statistics
(PID.TID 0000.0001) // =======================================================
 cg2d: Sum(rhs),rhsMax =  -2.05209861536869E-02  1.98236474804468E-10
 cg2d: Sum(rhs),rhsMax =  -2.04588543720712E-02  1.98838504725406E-10
 cg2d: Sum(rhs),rhsMax =  -2.04005442639377E-02  1.99406839860988E-10
 cg2d: Sum(rhs),rhsMax =  -2.03460084459148E-02  1.99941335910441E-10
 cg2d: Sum(rhs),rhsMax =  -2.02952030456482E-02  2.00441855325563E-10
 cg2d: Sum(rhs),rhsMax =  -2.02480875850638E-02  2.00908267338946E-10
 cg2d: Sum(rhs),rhsMax =  -2.02045755024268E-02  2.01340940302334E-10
 cg2d: Sum(rhs),rhsMax =  -2.01643342234439E-02  2.01742751432557E-10
 cg2d: Sum(rhs),rhsMax =  -2.01276762876675E-02  2.02110181040188E-10
 cg2d: Sum(rhs),rhsMax =  -2.00945737838178E-02  2.02443125886355E-10
 cg2d: Sum(rhs),rhsMax =  -2.00650018236665E-02  2.02741489629904E-10
 cg2d: Sum(rhs),rhsMax =  -2.00389385629324E-02  2.03005182841961E-10
 cg2d: Sum(rhs),rhsMax =  -2.00163651289699E-02  2.03234123024829E-10
 cg2d: Sum(rhs),rhsMax =  -1.99972655929407E-02  2.03428234632743E-10
 cg2d: Sum(rhs),rhsMax =  -1.99814484661161E-02  2.03589267772719E-10
 cg2d: Sum(rhs),rhsMax =  -1.99688265608849E-02  2.03717953687736E-10
(PID.TID 0000.0001)      cg2d_init_res =   3.49109405807799E-01
(PID.TID 0000.0001)      cg2d_iters(min,last) =      -1     553
(PID.TID 0000.0001)      cg2d_last_res =   9.10578799282991E-08
(PID.TID 0000.0001) // =======================================================
(PID.TID 0000.0001) // Begin MONITOR dynamic field statistics
(PID.TID 0000.0001) // =======================================================
(PID.TID 0000.0001) %MON time_tsnumber                =                  4464
(PID.TID 0000.0001) %MON time_secondsf                =   2.4105600000000E+07
(PID.TID 0000.0001) %MON dynstat_eta_max              =   2.6287143198853E-09
(PID.TID 0000.0001) %MON dynstat_eta_min              =  -2.1296421971974E-09
(PID.TID 0000.0001) %MON dynstat_eta_mean             =   3.9203889236633E-13
(PID.TID 0000.0001) %MON dynstat_eta_sd               =   1.1290593479404E-09
(PID.TID 0000.0001) %MON dynstat_eta_del2             =   8.7704178999887E-15
(PID.TID 0000.0001) %MON dynstat_uvel_max             =   1.3109402014865E-09
(PID.TID 0000.0001) %MON dynstat_uvel_min             =  -1.5429566873923E-09
(PID.TID 0000.0001) %MON dynstat_uvel_mean            =  -1.3124474372725E-13
(PID.TID 0000.0001) %MON dynstat_uvel_sd              =   4.7396775112592E-10
(PID.TID 0000.0001) %MON dynstat_uvel_del2            =   3.3877107440044E-14
(PID.TID 0000.0001) %MON dynstat_vvel_max             =   1.5047108288615E-09
(PID.TID 0000.0001) %MON dynstat_vvel_min             =  -2.3848611891678E-09
(PID.TID 0000.0001) %MON dynstat_vvel_mean            =   1.0552743956700E-14
(PID.TID 0000.0001) %MON dynstat_vvel_sd              =   8.1807491612449E-10
(PID.TID 0000.0001) %MON dynstat_vvel_del2            =   4.3209630414789E-14
(PID.TID 0000.0001) %MON dynstat_wvel_max             =   5.3456469825686E-15
(PID.TID 0000.0001) %MON dynstat_wvel_min             =  -7.3371730507921E-15
(PID.TID 0000.0001) %MON dynstat_wvel_mean            =  -1.9874050013669E-28
(PID.TID 0000.0001) %MON dynstat_wvel_sd              =   2.9808908358023E-15
(PID.TID 0000.0001) %MON dynstat_wvel_del2            =   1.7930968304862E-20
(PID.TID 0000.0001) %MON dynstat_theta_max            =   2.0000000000000E+01
(PID.TID 0000.0001) %MON dynstat_theta_min            =   2.0000000000000E+01
(PID.TID 0000.0001) %MON dynstat_theta_mean           =   2.0000000000000E+01
(PID.TID 0000.0001) %MON dynstat_theta_sd             =   0.0000000000000E+00
(PID.TID 0000.0001) %MON dynstat_theta_del2           =   0.0000000000000E+00
(PID.TID 0000.0001) %MON dynstat_salt_max             =   3.0000000000000E+01
(PID.TID 0000.0001) %MON dynstat_salt_min             =   3.0000000000000E+01
(PID.TID 0000.0001) %MON dynstat_salt_mean            =   3.0000000000000E+01
(PID.TID 0000.0001) %MON dynstat_salt_sd              =   0.0000000000000E+00
(PID.TID 0000.0001) %MON dynstat_salt_del2            =   0.0000000000000E+00
(PID.TID 0000.0001) %MON trAdv_CFL_u_max              =   1.6763269242744E-09
(PID.TID 0000.0001) %MON trAdv_CFL_v_max              =   2.5789973983369E-09
(PID.TID 0000.0001) %MON trAdv_CFL_w_max              =   5.7935372263618E-15
(PID.TID 0000.0001) %MON advcfl_uvel_max              =   1.6663932223837E-09
(PID.TID 0000.0001) %MON advcfl_vvel_max              =   2.5756500843012E-09
(PID.TID 0000.0001) %MON advcfl_wvel_max              =   1.5848293789711E-14
(PID.TID 0000.0001) %MON advcfl_W_hf_max              =   0.0000000000000E+00
(PID.TID 0000.0001) %MON pe_b_mean                    =   1.2505544367337E-21
(PID.TID 0000.0001) %MON ke_max                       =   2.8630943810743E-18
(PID.TID 0000.0001) %MON ke_mean                      =   4.4512915372931E-19
(PID.TID 0000.0001) %MON ke_vol                       =   7.5645000000000E+15
(PID.TID 0000.0001) %MON vort_r_min                   =  -8.3794669705458E-14
(PID.TID 0000.0001) %MON vort_r_max                   =   6.7051899826795E-14
(PID.TID 0000.0001) %MON vort_a_mean                  =   8.2300000000001E-05
(PID.TID 0000.0001) %MON vort_a_sd                    =   7.1297555115437E-06
(PID.TID 0000.0001) %MON vort_p_mean                  =   8.3303658536586E-05
(PID.TID 0000.0001) %MON vort_p_sd                    =   1.7411470229757E-05
(PID.TID 0000.0001) %MON surfExpan_theta_mean         =  -3.9916890934860E-27
(PID.TID 0000.0001) %MON surfExpan_salt_mean          =  -5.9681877637934E-27
(PID.TID 0000.0001) // =======================================================
(PID.TID 0000.0001) // End MONITOR dynamic field statistics
(PID.TID 0000.0001) // =======================================================
 cg2d: Sum(rhs),rhsMax =  -1.99596407110186E-02  2.03811710149056E-10
 cg2d: Sum(rhs),rhsMax =  -1.99538860967677E-02  2.03870489554426E-10
 cg2d: Sum(rhs),rhsMax =  -1.99515607798085E-02  2.03894251297034E-10
 cg2d: Sum(rhs),rhsMax =  -1.99526656452797E-02  2.03882961782861E-10
 cg2d: Sum(rhs),rhsMax =  -1.99572044336089E-02  2.03836594429943E-10
 cg2d: Sum(rhs),rhsMax =  -1.99651490000260E-02  2.03755484342527E-10
 cg2d: Sum(rhs),rhsMax =  -1.99760987539783E-02  2.03643798146152E-10
 cg2d: Sum(rhs),rhsMax =  -1.99905006831915E-02  2.03497086180218E-10
 cg2d: Sum(rhs),rhsMax =  -2.00083695574349E-02  2.03315349813327E-10
 cg2d: Sum(rhs),rhsMax =  -2.00297231157649E-02  2.03098597442819E-10
 cg2d: Sum(rhs),rhsMax =  -2.00545820529106E-02  2.02846844457304E-10
 cg2d: Sum(rhs),rhsMax =  -2.00829701181692E-02  2.02560113276072E-10
 cg2d: Sum(rhs),rhsMax =  -2.01148232013757E-02  2.02239347388436E-10
 cg2d: Sum(rhs),rhsMax =  -2.01498112261972E-02  2.01888180799451E-10
 cg2d: Sum(rhs),rhsMax =  -2.01884046267312E-02  2.01502239622069E-10
 cg2d: Sum(rhs),rhsMax =  -2.02306391494792E-02  2.01081573931427E-10
(PID.TID 0000.0001)      cg2d_init_res =   3.50675197887544E-01
(PID.TID 0000.0001)      cg2d_iters(min,last) =      -1     553
(PID.TID 0000.0001)      cg2d_last_res =   9.01849764280917E-08
(PID.TID 0000.0001) // =======================================================
(PID.TID 0000.0001) // Begin MONITOR dynamic field statistics
(PID.TID 0000.0001) // =======================================================
(PID.TID 0000.0001) %MON time_tsnumber                =                  4480
(PID.TID 0000.0001) %MON time_secondsf                =   2.4192000000000E+07
(PID.TID 0000.0001) %MON dynstat_eta_max              =   2.5623748039236E-09
(PID.TID 0000.0001) %MON dynstat_eta_min              =  -2.3531766765434E-09
(PID.TID 0000.0001) %MON dynstat_eta_mean             =   3.9203891834355E-13
(PID.TID 0000.0001) %MON dynstat_eta_sd               =   1.1296970883579E-09
(PID.TID 0000.0001) %MON dynstat_eta_del2             =   8.8483389061509E-15
(PID.TID 0000.0001) %MON dynstat_uvel_max             =   1.1631209080095E-09
(PID.TID 0000.0001) %MON dynstat_uvel_min             =  -1.3789340673578E-09
(PID.TID 0000.0001) %MON dynstat_uvel_mean            =  -1.2061719355438E-13
(PID.TID 0000.0001) %MON dynstat_uvel_sd              =   4.5989198319887E-10
(PID.TID 0000.0001) %MON dynstat_uvel_del2            =   3.3081007905281E-14
(PID.TID 0000.0001) %MON dynstat_vvel_max             =   1.6806860421300E-09
(PID.TID 0000.0001) %MON dynstat_vvel_min             =  -2.3239946860508E-09
(PID.TID 0000.0001) %MON dynstat_vvel_mean            =   1.1969999384088E-14
(PID.TID 0000.0001) %MON dynstat_vvel_sd              =   8.1887455926086E-10
(PID.TID 0000.0001) %MON dynstat_vvel_del2            =   4.3645478263770E-14
(PID.TID 0000.0001) %MON dynstat_wvel_max             =   5.0271277057812E-15
(PID.TID 0000.0001) %MON dynstat_wvel_min             =  -7.4630426410982E-15
(PID.TID 0000.0001) %MON dynstat_wvel_mean            =  -3.3098100603359E-28
(PID.TID 0000.0001) %MON dynstat_wvel_sd              =   2.9704606952143E-15
(PID.TID 0000.0001) %MON dynstat_wvel_del2            =   1.7739324080069E-20
(PID.TID 0000.0001) %MON dynstat_theta_max            =   2.0000000000000E+01
(PID.TID 0000.0001) %MON dynstat_theta_min            =   2.0000000000000E+01
(PID.TID 0000.0001) %MON dynstat_theta_mean           =   2.0000000000000E+01
(PID.TID 0000.0001) %MON dynstat_theta_sd             =   0.0000000000000E+00
(PID.TID 0000.0001) %MON dynstat_theta_del2           =   0.0000000000000E+00
(PID.TID 0000.0001) %MON dynstat_salt_max             =   3.0000000000000E+01
(PID.TID 0000.0001) %MON dynstat_salt_min             =   3.0000000000000E+01
(PID.TID 0000.0001) %MON dynstat_salt_mean            =   3.0000000000000E+01
(PID.TID 0000.0001) %MON dynstat_salt_sd              =   0.0000000000000E+00
(PID.TID 0000.0001) %MON dynstat_salt_del2            =   0.0000000000000E+00
(PID.TID 0000.0001) %MON trAdv_CFL_u_max              =   1.5014871399041E-09
(PID.TID 0000.0001) %MON trAdv_CFL_v_max              =   2.5146122690663E-09
(PID.TID 0000.0001) %MON trAdv_CFL_w_max              =   5.4516295841633E-15
(PID.TID 0000.0001) %MON advcfl_uvel_max              =   1.4892487927464E-09
(PID.TID 0000.0001) %MON advcfl_vvel_max              =   2.5099142609348E-09
(PID.TID 0000.0001) %MON advcfl_wvel_max              =   1.6120172104772E-14
(PID.TID 0000.0001) %MON advcfl_W_hf_max              =   0.0000000000000E+00
(PID.TID 0000.0001) %MON pe_b_mean                    =   1.2519675675012E-21
(PID.TID 0000.0001) %MON ke_max                       =   2.7037324067134E-18
(PID.TID 0000.0001) %MON ke_mean                      =   4.3923530020981E-19
(PID.TID 0000.0001) %MON ke_vol                       =   7.5645000000000E+15
(PID.TID 0000.0001) %MON vort_r_min                   =  -8.5100291365252E-14
(PID.TID 0000.0001) %MON vort_r_max                   =   7.3690480553127E-14
(PID.TID 0000.0001) %MON vort_a_mean                  =   8.2300000000000E-05
(PID.TID 0000.0001) %MON vort_a_sd                    =   7.1297555115559E-06
(PID.TID 0000.0001) %MON vort_p_mean                  =   8.3303658536586E-05
(PID.TID 0000.0001) %MON vort_p_sd                    =   1.7411470229733E-05
(PID.TID 0000.0001) %MON surfExpan_theta_mean         =  -6.6200677688224E-27
(PID.TID 0000.0001) %MON surfExpan_salt_mean          =  -9.9355346677886E-27
(PID.TID 0000.0001) // =======================================================
(PID.TID 0000.0001) // End MONITOR dynamic field statistics
(PID.TID 0000.0001) // =======================================================
 cg2d: Sum(rhs),rhsMax =  -2.02765538611318E-02  2.00626240729090E-10
 cg2d: Sum(rhs),rhsMax =  -2.03261912522566E-02  2.00136303981580E-10
 cg2d: Sum(rhs),rhsMax =  -2.03795972964750E-02  1.99611834555755E-10
 cg2d: Sum(rhs),rhsMax =  -2.04363800716686E-02  1.99057210913845E-10
 cg2d: Sum(rhs),rhsMax =  -2.04968500233830E-02  1.98469951597764E-10
 cg2d: Sum(rhs),rhsMax =  -2.05612304697002E-02  1.97848511619943E-10
 cg2d: Sum(rhs),rhsMax =  -2.06295816104793E-02  1.97192988914853E-10
 cg2d: Sum(rhs),rhsMax =  -2.07019677185670E-02  1.96503488221199E-10
 cg2d: Sum(rhs),rhsMax =  -2.07784572865332E-02  1.95780121087496E-10
 cg2d: Sum(rhs),rhsMax =  -2.08586242510348E-02  1.95027670391904E-10
 cg2d: Sum(rhs),rhsMax =  -2.09428273404910E-02  1.94243539376322E-10
 cg2d: Sum(rhs),rhsMax =  -2.10313429631130E-02  1.93426017923776E-10
 cg2d: Sum(rhs),rhsMax =  -2.11242569483930E-02  1.92575243870360E-10
 cg2d: Sum(rhs),rhsMax =  -2.12216602319231E-02  1.91691361649179E-10
 cg2d: Sum(rhs),rhsMax =  -2.13102463287325E-02  1.90894506589040E-10
 cg2d: Sum(rhs),rhsMax =  -2.12065429844556E-02  1.91828011384892E-10
(PID.TID 0000.0001)      cg2d_init_res =   3.65546260937531E-01
(PID.TID 0000.0001)      cg2d_iters(min,last) =      -1     553
(PID.TID 0000.0001)      cg2d_last_res =   8.91543598371692E-08
(PID.TID 0000.0001) // =======================================================
(PID.TID 0000.0001) // Begin MONITOR dynamic field statistics
(PID.TID 0000.0001) // =======================================================
(PID.TID 0000.0001) %MON time_tsnumber                =                  4496
(PID.TID 0000.0001) %MON time_secondsf                =   2.4278400000000E+07
(PID.TID 0000.0001) %MON dynstat_eta_max              =   2.5685106577928E-09
(PID.TID 0000.0001) %MON dynstat_eta_min              =  -2.5492100899658E-09
(PID.TID 0000.0001) %MON dynstat_eta_mean             =   3.9203893790153E-13
(PID.TID 0000.0001) %MON dynstat_eta_sd               =   1.1320592233399E-09
(PID.TID 0000.0001) %MON dynstat_eta_del2             =   8.8995672565139E-15
(PID.TID 0000.0001) %MON dynstat_uvel_max             =   1.2043429413177E-09
(PID.TID 0000.0001) %MON dynstat_uvel_min             =  -1.1868161187003E-09
(PID.TID 0000.0001) %MON dynstat_uvel_mean            =  -1.0339773824869E-13
(PID.TID 0000.0001) %MON dynstat_uvel_sd              =   4.4239487960566E-10
(PID.TID 0000.0001) %MON dynstat_uvel_del2            =   3.2835024101919E-14
(PID.TID 0000.0001) %MON dynstat_vvel_max             =   1.8356854677697E-09
(PID.TID 0000.0001) %MON dynstat_vvel_min             =  -2.2383017956775E-09
(PID.TID 0000.0001) %MON dynstat_vvel_mean            =   1.3130005809564E-14
(PID.TID 0000.0001) %MON dynstat_vvel_sd              =   8.2119096587908E-10
(PID.TID 0000.0001) %MON dynstat_vvel_del2            =   4.3409981841559E-14
(PID.TID 0000.0001) %MON dynstat_wvel_max             =   4.6755293151013E-15
(PID.TID 0000.0001) %MON dynstat_wvel_min             =  -7.5034848276423E-15
(PID.TID 0000.0001) %MON dynstat_wvel_mean            =  -5.3090827004144E-29
(PID.TID 0000.0001) %MON dynstat_wvel_sd              =   2.9558029832207E-15
(PID.TID 0000.0001) %MON dynstat_wvel_del2            =   1.7559375238281E-20
(PID.TID 0000.0001) %MON dynstat_theta_max            =   2.0000000000000E+01
(PID.TID 0000.0001) %MON dynstat_theta_min            =   2.0000000000000E+01
(PID.TID 0000.0001) %MON dynstat_theta_mean           =   2.0000000000000E+01
(PID.TID 0000.0001) %MON dynstat_theta_sd             =   0.0000000000000E+00
(PID.TID 0000.0001) %MON dynstat_theta_del2           =   0.0000000000000E+00
(PID.TID 0000.0001) %MON dynstat_salt_max             =   3.0000000000000E+01
(PID.TID 0000.0001) %MON dynstat_salt_min             =   3.0000000000000E+01
(PID.TID 0000.0001) %MON dynstat_salt_mean            =   3.0000000000000E+01
(PID.TID 0000.0001) %MON dynstat_salt_sd              =   0.0000000000000E+00
(PID.TID 0000.0001) %MON dynstat_salt_del2            =   0.0000000000000E+00
(PID.TID 0000.0001) %MON trAdv_CFL_u_max              =   1.2954311641164E-09
(PID.TID 0000.0001) %MON trAdv_CFL_v_max              =   2.4241102824528E-09
(PID.TID 0000.0001) %MON trAdv_CFL_w_max              =   5.0746666653834E-15
(PID.TID 0000.0001) %MON advcfl_uvel_max              =   1.3006903766231E-09
(PID.TID 0000.0001) %MON advcfl_vvel_max              =   2.4173659393317E-09
(PID.TID 0000.0001) %MON advcfl_wvel_max              =   1.6207527227707E-14
(PID.TID 0000.0001) %MON advcfl_W_hf_max              =   0.0000000000000E+00
(PID.TID 0000.0001) %MON pe_b_mean                    =   1.2572086323055E-21
(PID.TID 0000.0001) %MON ke_max                       =   2.5057584335815E-18
(PID.TID 0000.0001) %MON ke_mean                      =   4.3326549082829E-19
(PID.TID 0000.0001) %MON ke_vol                       =   7.5645000000000E+15
(PID.TID 0000.0001) %MON vort_r_min                   =  -8.2787470011485E-14
(PID.TID 0000.0001) %MON vort_r_max                   =   8.1795567368956E-14
(PID.TID 0000.0001) %MON vort_a_mean                  =   8.2300000000000E-05
(PID.TID 0000.0001) %MON vort_a_sd                    =   7.1297555115596E-06
(PID.TID 0000.0001) %MON vort_p_mean                  =   8.3303658536585E-05
(PID.TID 0000.0001) %MON vort_p_sd                    =   1.7411470229699E-05
(PID.TID 0000.0001) %MON surfExpan_theta_mean         =  -1.0772775143786E-27
(PID.TID 0000.0001) %MON surfExpan_salt_mean          =  -1.6218487634631E-27
(PID.TID 0000.0001) // =======================================================
(PID.TID 0000.0001) // End MONITOR dynamic field statistics
(PID.TID 0000.0001) // =======================================================
 cg2d: Sum(rhs),rhsMax =  -2.11063640473057E-02  1.92738501531487E-10
 cg2d: Sum(rhs),rhsMax =  -2.10088295246541E-02  1.93633300006797E-10
 cg2d: Sum(rhs),rhsMax =  -2.09139971361425E-02  1.94511311035604E-10
 cg2d: Sum(rhs),rhsMax =  -2.08225782990083E-02  1.95365288401656E-10
 cg2d: Sum(rhs),rhsMax =  -2.07345255008090E-02  1.96194941900056E-10
 cg2d: Sum(rhs),rhsMax =  -2.06496644153369E-02  1.97001217843571E-10
 cg2d: Sum(rhs),rhsMax =  -2.05667547975029E-02  1.97795378594852E-10
 cg2d: Sum(rhs),rhsMax =  -2.04871184328244E-02  1.98564238194282E-10
 cg2d: Sum(rhs),rhsMax =  -2.04107151611399E-02  1.99307522709181E-10
 cg2d: Sum(rhs),rhsMax =  -2.03375070025962E-02  2.00024963060111E-10
 cg2d: Sum(rhs),rhsMax =  -2.02665723969740E-02  2.00725066758956E-10
 cg2d: Sum(rhs),rhsMax =  -2.01983094983553E-02  2.01403444652886E-10
 cg2d: Sum(rhs),rhsMax =  -2.01331711878468E-02  2.02055060341806E-10
 cg2d: Sum(rhs),rhsMax =  -2.00711264216304E-02  2.02679662642249E-10
 cg2d: Sum(rhs),rhsMax =  -2.00119041602296E-02  2.03279463546220E-10
 cg2d: Sum(rhs),rhsMax =  -1.99546956051098E-02  2.03862250454752E-10
(PID.TID 0000.0001)      cg2d_init_res =   3.43691936803169E-01
(PID.TID 0000.0001)      cg2d_iters(min,last) =      -1     552
(PID.TID 0000.0001)      cg2d_last_res =   9.26837351125762E-08
(PID.TID 0000.0001) // =======================================================
(PID.TID 0000.0001) // Begin MONITOR dynamic field statistics
(PID.TID 0000.0001) // =======================================================
(PID.TID 0000.0001) %MON time_tsnumber                =                  4512
(PID.TID 0000.0001) %MON time_secondsf                =   2.4364800000000E+07
(PID.TID 0000.0001) %MON dynstat_eta_max              =   2.5487313775870E-09
(PID.TID 0000.0001) %MON dynstat_eta_min              =  -2.7132347348746E-09
(PID.TID 0000.0001) %MON dynstat_eta_mean             =   3.9203895565691E-13
(PID.TID 0000.0001) %MON dynstat_eta_sd               =   1.1353713748700E-09
(PID.TID 0000.0001) %MON dynstat_eta_del2             =   8.9128484933166E-15
(PID.TID 0000.0001) %MON dynstat_uvel_max             =   1.3507265449972E-09
(PID.TID 0000.0001) %MON dynstat_uvel_min             =  -9.7018414505109E-10
(PID.TID 0000.0001) %MON dynstat_uvel_mean            =  -8.0514896392319E-14
(PID.TID 0000.0001) %MON dynstat_uvel_sd              =   4.2496230664224E-10
(PID.TID 0000.0001) %MON dynstat_uvel_del2            =   3.3195261174011E-14
(PID.TID 0000.0001) %MON dynstat_vvel_max             =   1.9668508457640E-09
(PID.TID 0000.0001) %MON dynstat_vvel_min             =  -2.1306274589967E-09
(PID.TID 0000.0001) %MON dynstat_vvel_mean            =   1.3933425871579E-14
(PID.TID 0000.0001) %MON dynstat_vvel_sd              =   8.2307696916511E-10
(PID.TID 0000.0001) %MON dynstat_vvel_del2            =   4.2615053372589E-14
(PID.TID 0000.0001) %MON dynstat_wvel_max             =   4.2872771784108E-15
(PID.TID 0000.0001) %MON dynstat_wvel_min             =  -7.4728833648896E-15
(PID.TID 0000.0001) %MON dynstat_wvel_mean            =   4.4521358676892E-29
(PID.TID 0000.0001) %MON dynstat_wvel_sd              =   2.9392977830657E-15
(PID.TID 0000.0001) %MON dynstat_wvel_del2            =   1.7432858508779E-20
(PID.TID 0000.0001) %MON dynstat_theta_max            =   2.0000000000000E+01
(PID.TID 0000.0001) %MON dynstat_theta_min            =   2.0000000000000E+01
(PID.TID 0000.0001) %MON dynstat_theta_mean           =   2.0000000000000E+01
(PID.TID 0000.0001) %MON dynstat_theta_sd             =   0.0000000000000E+00
(PID.TID 0000.0001) %MON dynstat_theta_del2           =   0.0000000000000E+00
(PID.TID 0000.0001) %MON dynstat_salt_max             =   3.0000000000000E+01
(PID.TID 0000.0001) %MON dynstat_salt_min             =   3.0000000000000E+01
(PID.TID 0000.0001) %MON dynstat_salt_mean            =   3.0000000000000E+01
(PID.TID 0000.0001) %MON dynstat_salt_sd              =   0.0000000000000E+00
(PID.TID 0000.0001) %MON dynstat_salt_del2            =   0.0000000000000E+00
(PID.TID 0000.0001) %MON trAdv_CFL_u_max              =   1.4492138661099E-09
(PID.TID 0000.0001) %MON trAdv_CFL_v_max              =   2.3088100182979E-09
(PID.TID 0000.0001) %MON trAdv_CFL_w_max              =   4.6569703105293E-15
(PID.TID 0000.0001) %MON advcfl_uvel_max              =   1.4587846685970E-09
(PID.TID 0000.0001) %MON advcfl_vvel_max              =   2.3010776557164E-09
(PID.TID 0000.0001) %MON advcfl_wvel_max              =   1.6141428068162E-14
(PID.TID 0000.0001) %MON advcfl_W_hf_max              =   0.0000000000000E+00
(PID.TID 0000.0001) %MON pe_b_mean                    =   1.2645760146300E-21
(PID.TID 0000.0001) %MON ke_max                       =   2.2840097964715E-18
(PID.TID 0000.0001) %MON ke_mean                      =   4.2728033160327E-19
(PID.TID 0000.0001) %MON ke_vol                       =   7.5645000000000E+15
(PID.TID 0000.0001) %MON vort_r_min                   =  -8.1667678503932E-14
(PID.TID 0000.0001) %MON vort_r_max                   =   8.7990728831709E-14
(PID.TID 0000.0001) %MON vort_a_mean                  =   8.2300000000001E-05
(PID.TID 0000.0001) %MON vort_a_sd                    =   7.1297555115462E-06
(PID.TID 0000.0001) %MON vort_p_mean                  =   8.3303658536587E-05
(PID.TID 0000.0001) %MON vort_p_sd                    =   1.7411470229654E-05
(PID.TID 0000.0001) %MON surfExpan_theta_mean         =   8.7979227821454E-28
(PID.TID 0000.0001) %MON surfExpan_salt_mean          =   1.3611841577388E-27
(PID.TID 0000.0001) // =======================================================
(PID.TID 0000.0001) // End MONITOR dynamic field statistics
(PID.TID 0000.0001) // =======================================================
 cg2d: Sum(rhs),rhsMax =  -1.99005269460620E-02  2.04417158102546E-10
 cg2d: Sum(rhs),rhsMax =  -1.98493738716618E-02  2.04943954433466E-10
 cg2d: Sum(rhs),rhsMax =  -1.98012140175371E-02  2.05442412845801E-10
 cg2d: Sum(rhs),rhsMax =  -1.97552057332743E-02  2.05920872339770E-10
 cg2d: Sum(rhs),rhsMax =  -1.97117994038861E-02  2.06374320562161E-10
 cg2d: Sum(rhs),rhsMax =  -1.96713541803595E-02  2.06798636481074E-10
 cg2d: Sum(rhs),rhsMax =  -1.96338543188355E-02  2.07193614027127E-10
 cg2d: Sum(rhs),rhsMax =  -1.95991480216988E-02  2.07560514464392E-10
 cg2d: Sum(rhs),rhsMax =  -1.95663849772059E-02  2.07908066002409E-10
 cg2d: Sum(rhs),rhsMax =  -1.95365522785974E-02  2.08225546444858E-10
 cg2d: Sum(rhs),rhsMax =  -1.95096408643581E-02  2.08512771490756E-10
 cg2d: Sum(rhs),rhsMax =  -1.94856436313265E-02  2.08769562695926E-10
 cg2d: Sum(rhs),rhsMax =  -1.94640628696228E-02  2.09001036393967E-10
 cg2d: Sum(rhs),rhsMax =  -1.94448382998093E-02  2.09207670603845E-10
 cg2d: Sum(rhs),rhsMax =  -1.94285355552584E-02  2.09383220477877E-10
 cg2d: Sum(rhs),rhsMax =  -1.94151543893393E-02  2.09527530847808E-10
(PID.TID 0000.0001)      cg2d_init_res =   3.36096937506554E-01
(PID.TID 0000.0001)      cg2d_iters(min,last) =      -1     547
(PID.TID 0000.0001)      cg2d_last_res =   9.79172642764322E-08
(PID.TID 0000.0001) // =======================================================
(PID.TID 0000.0001) // Begin MONITOR dynamic field statistics
(PID.TID 0000.0001) // =======================================================
(PID.TID 0000.0001) %MON time_tsnumber                =                  4528
(PID.TID 0000.0001) %MON time_secondsf                =   2.4451200000000E+07
(PID.TID 0000.0001) %MON dynstat_eta_max              =   2.4949256483887E-09
(PID.TID 0000.0001) %MON dynstat_eta_min              =  -2.8400912542115E-09
(PID.TID 0000.0001) %MON dynstat_eta_mean             =   3.9203897627025E-13
(PID.TID 0000.0001) %MON dynstat_eta_sd               =   1.1387506472321E-09
(PID.TID 0000.0001) %MON dynstat_eta_del2             =   8.8801403235535E-15
(PID.TID 0000.0001) %MON dynstat_uvel_max             =   1.4847634352506E-09
(PID.TID 0000.0001) %MON dynstat_uvel_min             =  -7.5454845176605E-10
(PID.TID 0000.0001) %MON dynstat_uvel_mean            =  -5.3202696268412E-14
(PID.TID 0000.0001) %MON dynstat_uvel_sd              =   4.1171026139951E-10
(PID.TID 0000.0001) %MON dynstat_uvel_del2            =   3.4065926110506E-14
(PID.TID 0000.0001) %MON dynstat_vvel_max             =   2.0719476915443E-09
(PID.TID 0000.0001) %MON dynstat_vvel_min             =  -2.0024525498411E-09
(PID.TID 0000.0001) %MON dynstat_vvel_mean            =   1.4297818334383E-14
(PID.TID 0000.0001) %MON dynstat_vvel_sd              =   8.2257512540657E-10
(PID.TID 0000.0001) %MON dynstat_vvel_del2            =   4.1462495204849E-14
(PID.TID 0000.0001) %MON dynstat_wvel_max             =   3.8685562486762E-15
(PID.TID 0000.0001) %MON dynstat_wvel_min             =  -7.3877610842765E-15
(PID.TID 0000.0001) %MON dynstat_wvel_mean            =  -1.1283589198984E-28
(PID.TID 0000.0001) %MON dynstat_wvel_sd              =   2.9234845147594E-15
(PID.TID 0000.0001) %MON dynstat_wvel_del2            =   1.7378119828663E-20
(PID.TID 0000.0001) %MON dynstat_theta_max            =   2.0000000000000E+01
(PID.TID 0000.0001) %MON dynstat_theta_min            =   2.0000000000000E+01
(PID.TID 0000.0001) %MON dynstat_theta_mean           =   2.0000000000000E+01
(PID.TID 0000.0001) %MON dynstat_theta_sd             =   0.0000000000000E+00
(PID.TID 0000.0001) %MON dynstat_theta_del2           =   0.0000000000000E+00
(PID.TID 0000.0001) %MON dynstat_salt_max             =   3.0000000000000E+01
(PID.TID 0000.0001) %MON dynstat_salt_min             =   3.0000000000000E+01
(PID.TID 0000.0001) %MON dynstat_salt_mean            =   3.0000000000000E+01
(PID.TID 0000.0001) %MON dynstat_salt_sd              =   0.0000000000000E+00
(PID.TID 0000.0001) %MON dynstat_salt_del2            =   0.0000000000000E+00
(PID.TID 0000.0001) %MON trAdv_CFL_u_max              =   1.5949135426966E-09
(PID.TID 0000.0001) %MON trAdv_CFL_v_max              =   2.2315604006521E-09
(PID.TID 0000.0001) %MON trAdv_CFL_w_max              =   4.2070560622720E-15
(PID.TID 0000.0001) %MON advcfl_uvel_max              =   1.6035445100707E-09
(PID.TID 0000.0001) %MON advcfl_vvel_max              =   2.2377035068679E-09
(PID.TID 0000.0001) %MON advcfl_wvel_max              =   1.5957563942037E-14
(PID.TID 0000.0001) %MON advcfl_W_hf_max              =   0.0000000000000E+00
(PID.TID 0000.0001) %MON pe_b_mean                    =   1.2721148796510E-21
(PID.TID 0000.0001) %MON ke_max                       =   2.1540000802356E-18
(PID.TID 0000.0001) %MON ke_mean                      =   4.2134780270729E-19
(PID.TID 0000.0001) %MON ke_vol                       =   7.5645000000000E+15
(PID.TID 0000.0001) %MON vort_r_min                   =  -8.7540109996370E-14
(PID.TID 0000.0001) %MON vort_r_max                   =   9.1689632063547E-14
(PID.TID 0000.0001) %MON vort_a_mean                  =   8.2299999999999E-05
(PID.TID 0000.0001) %MON vort_a_sd                    =   7.1297555115793E-06
(PID.TID 0000.0001) %MON vort_p_mean                  =   8.3303658536584E-05
(PID.TID 0000.0001) %MON vort_p_sd                    =   1.7411470229624E-05
(PID.TID 0000.0001) %MON surfExpan_theta_mean         =  -2.1350089974677E-27
(PID.TID 0000.0001) %MON surfExpan_salt_mean          =  -3.1521382985928E-27
(PID.TID 0000.0001) // =======================================================
(PID.TID 0000.0001) // End MONITOR dynamic field statistics
(PID.TID 0000.0001) // =======================================================
 cg2d: Sum(rhs),rhsMax =  -1.94046966378388E-02  2.09640452166479E-10
 cg2d: Sum(rhs),rhsMax =  -1.93964809558551E-02  2.09729249410587E-10
 cg2d: Sum(rhs),rhsMax =  -1.93909036098300E-02  2.09789573998630E-10
 cg2d: Sum(rhs),rhsMax =  -1.93882815131072E-02  2.09817947057170E-10
 cg2d: Sum(rhs),rhsMax =  -1.93886238424285E-02  2.09814243357940E-10
 cg2d: Sum(rhs),rhsMax =  -1.93919419056909E-02  2.09778343983623E-10
 cg2d: Sum(rhs),rhsMax =  -1.93975381256997E-02  2.09717823431892E-10
 cg2d: Sum(rhs),rhsMax =  -1.94059238449965E-02  2.09627200769679E-10
 cg2d: Sum(rhs),rhsMax =  -1.94173438807440E-02  2.09503912423875E-10
 cg2d: Sum(rhs),rhsMax =  -1.94318176593656E-02  2.09347864373680E-10
 cg2d: Sum(rhs),rhsMax =  -1.94493669331238E-02  2.09158969323955E-10
 cg2d: Sum(rhs),rhsMax =  -1.94694540592085E-02  2.08943175571569E-10
 cg2d: Sum(rhs),rhsMax =  -1.94923486042576E-02  2.08697764234307E-10
 cg2d: Sum(rhs),rhsMax =  -1.95184076193945E-02  2.08419132781572E-10
 cg2d: Sum(rhs),rhsMax =  -1.95476620780268E-02  2.08107219625044E-10
 cg2d: Sum(rhs),rhsMax =  -1.95801455952826E-02  2.07761969978295E-10
(PID.TID 0000.0001)      cg2d_init_res =   3.42670209802856E-01
(PID.TID 0000.0001)      cg2d_iters(min,last) =      -1     542
(PID.TID 0000.0001)      cg2d_last_res =   9.56716979391487E-08
(PID.TID 0000.0001) // =======================================================
(PID.TID 0000.0001) // Begin MONITOR dynamic field statistics
(PID.TID 0000.0001) // =======================================================
(PID.TID 0000.0001) %MON time_tsnumber                =                  4544
(PID.TID 0000.0001) %MON time_secondsf                =   2.4537600000000E+07
(PID.TID 0000.0001) %MON dynstat_eta_max              =   2.4119614767933E-09
(PID.TID 0000.0001) %MON dynstat_eta_min              =  -2.9271886265593E-09
(PID.TID 0000.0001) %MON dynstat_eta_mean             =   3.9203900143356E-13
(PID.TID 0000.0001) %MON dynstat_eta_sd               =   1.1414054163505E-09
(PID.TID 0000.0001) %MON dynstat_eta_del2             =   8.7979395504085E-15
(PID.TID 0000.0001) %MON dynstat_uvel_max             =   1.6006627143741E-09
(PID.TID 0000.0001) %MON dynstat_uvel_min             =  -7.8630978005093E-10
(PID.TID 0000.0001) %MON dynstat_uvel_mean            =  -2.2931647458517E-14
(PID.TID 0000.0001) %MON dynstat_uvel_sd              =   4.0641336173943E-10
(PID.TID 0000.0001) %MON dynstat_uvel_del2            =   3.5232093172332E-14
(PID.TID 0000.0001) %MON dynstat_vvel_max             =   2.1504758252626E-09
(PID.TID 0000.0001) %MON dynstat_vvel_min             =  -1.8582686778245E-09
(PID.TID 0000.0001) %MON dynstat_vvel_mean            =   1.4162408916065E-14
(PID.TID 0000.0001) %MON dynstat_vvel_sd              =   8.1810089276998E-10
(PID.TID 0000.0001) %MON dynstat_vvel_del2            =   4.0237664082315E-14
(PID.TID 0000.0001) %MON dynstat_wvel_max             =   3.4361305124853E-15
(PID.TID 0000.0001) %MON dynstat_wvel_min             =  -7.2648025015165E-15
(PID.TID 0000.0001) %MON dynstat_wvel_mean            =   2.0250746666954E-28
(PID.TID 0000.0001) %MON dynstat_wvel_sd              =   2.9104662602707E-15
(PID.TID 0000.0001) %MON dynstat_wvel_del2            =   1.7425551142700E-20
(PID.TID 0000.0001) %MON dynstat_theta_max            =   2.0000000000000E+01
(PID.TID 0000.0001) %MON dynstat_theta_min            =   2.0000000000000E+01
(PID.TID 0000.0001) %MON dynstat_theta_mean           =   2.0000000000000E+01
(PID.TID 0000.0001) %MON dynstat_theta_sd             =   0.0000000000000E+00
(PID.TID 0000.0001) %MON dynstat_theta_del2           =   0.0000000000000E+00
(PID.TID 0000.0001) %MON dynstat_salt_max             =   3.0000000000000E+01
(PID.TID 0000.0001) %MON dynstat_salt_min             =   3.0000000000000E+01
(PID.TID 0000.0001) %MON dynstat_salt_mean            =   3.0000000000000E+01
(PID.TID 0000.0001) %MON dynstat_salt_sd              =   0.0000000000000E+00
(PID.TID 0000.0001) %MON dynstat_salt_del2            =   0.0000000000000E+00
(PID.TID 0000.0001) %MON trAdv_CFL_u_max              =   1.7214193276665E-09
(PID.TID 0000.0001) %MON trAdv_CFL_v_max              =   2.3175734991366E-09
(PID.TID 0000.0001) %MON trAdv_CFL_w_max              =   3.7406903014126E-15
(PID.TID 0000.0001) %MON advcfl_uvel_max              =   1.7287157315240E-09
(PID.TID 0000.0001) %MON advcfl_vvel_max              =   2.3225138912836E-09
(PID.TID 0000.0001) %MON advcfl_wvel_max              =   1.5691973403276E-14
(PID.TID 0000.0001) %MON advcfl_W_hf_max              =   0.0000000000000E+00
(PID.TID 0000.0001) %MON pe_b_mean                    =   1.2780531550836E-21
(PID.TID 0000.0001) %MON ke_max                       =   2.3228710585405E-18
(PID.TID 0000.0001) %MON ke_mean                      =   4.1553438731517E-19
(PID.TID 0000.0001) %MON ke_vol                       =   7.5645000000000E+15
(PID.TID 0000.0001) %MON vort_r_min                   =  -9.1933400250817E-14
(PID.TID 0000.0001) %MON vort_r_max                   =   9.2413396056461E-14
(PID.TID 0000.0001) %MON vort_a_mean                  =   8.2300000000000E-05
(PID.TID 0000.0001) %MON vort_a_sd                    =   7.1297555115606E-06
(PID.TID 0000.0001) %MON vort_p_mean                  =   8.3303658536586E-05
(PID.TID 0000.0001) %MON vort_p_sd                    =   1.7411470229571E-05
(PID.TID 0000.0001) %MON surfExpan_theta_mean         =   4.0743130172245E-27
(PID.TID 0000.0001) %MON surfExpan_salt_mean          =   6.1300886861870E-27
(PID.TID 0000.0001) // =======================================================
(PID.TID 0000.0001) // End MONITOR dynamic field statistics
(PID.TID 0000.0001) // =======================================================
 cg2d: Sum(rhs),rhsMax =  -1.96156702857989E-02  2.07385706385186E-10
 cg2d: Sum(rhs),rhsMax =  -1.96538822663797E-02  2.06982498559311E-10
 cg2d: Sum(rhs),rhsMax =  -1.96954477281938E-02  2.06545681633881E-10
 cg2d: Sum(rhs),rhsMax =  -1.97404110542356E-02  2.06075227260417E-10
 cg2d: Sum(rhs),rhsMax =  -1.97888197148660E-02  2.05571113887928E-10
 cg2d: Sum(rhs),rhsMax =  -1.98407243790723E-02  2.05033327020794E-10
 cg2d: Sum(rhs),rhsMax =  -1.98956919102755E-02  2.04466864806278E-10
 cg2d: Sum(rhs),rhsMax =  -1.99539508350029E-02  2.03869890241161E-10
 cg2d: Sum(rhs),rhsMax =  -2.00158823774212E-02  2.03239093273633E-10
 cg2d: Sum(rhs),rhsMax =  -2.00815506559424E-02  2.02574486332998E-10
 cg2d: Sum(rhs),rhsMax =  -2.01510236055477E-02  2.01876088749029E-10
 cg2d: Sum(rhs),rhsMax =  -2.02243732528082E-02  2.01143926704117E-10
 cg2d: Sum(rhs),rhsMax =  -2.03012209879811E-02  2.00382522561044E-10
 cg2d: Sum(rhs),rhsMax =  -2.03817831302584E-02  1.99590480768871E-10
 cg2d: Sum(rhs),rhsMax =  -2.04664655560350E-02  1.98764652547633E-10
 cg2d: Sum(rhs),rhsMax =  -2.05553576378847E-02  1.97905091614750E-10
(PID.TID 0000.0001)      cg2d_init_res =   3.65364738191945E-01
(PID.TID 0000.0001)      cg2d_iters(min,last) =      -1     539
(PID.TID 0000.0001)      cg2d_last_res =   9.43877179036488E-08
(PID.TID 0000.0001) // =======================================================
(PID.TID 0000.0001) // Begin MONITOR dynamic field statistics
(PID.TID 0000.0001) // =======================================================
(PID.TID 0000.0001) %MON time_tsnumber                =                  4560
(PID.TID 0000.0001) %MON time_secondsf                =   2.4624000000000E+07
(PID.TID 0000.0001) %MON dynstat_eta_max              =   2.3053509047744E-09
(PID.TID 0000.0001) %MON dynstat_eta_min              =  -2.9751252399905E-09
(PID.TID 0000.0001) %MON dynstat_eta_mean             =   3.9203903216965E-13
(PID.TID 0000.0001) %MON dynstat_eta_sd               =   1.1427902549632E-09
(PID.TID 0000.0001) %MON dynstat_eta_del2             =   8.6682835891514E-15
(PID.TID 0000.0001) %MON dynstat_uvel_max             =   1.6949058694500E-09
(PID.TID 0000.0001) %MON dynstat_uvel_min             =  -8.3603105087564E-10
(PID.TID 0000.0001) %MON dynstat_uvel_mean            =   8.6726226105819E-15
(PID.TID 0000.0001) %MON dynstat_uvel_sd              =   4.1119410724094E-10
(PID.TID 0000.0001) %MON dynstat_uvel_del2            =   3.6427063715526E-14
(PID.TID 0000.0001) %MON dynstat_vvel_max             =   2.2028737689283E-09
(PID.TID 0000.0001) %MON dynstat_vvel_min             =  -1.7103209121905E-09
(PID.TID 0000.0001) %MON dynstat_vvel_mean            =   1.3491702475667E-14
(PID.TID 0000.0001) %MON dynstat_vvel_sd              =   8.0873768149708E-10
(PID.TID 0000.0001) %MON dynstat_vvel_del2            =   3.9280874286707E-14
(PID.TID 0000.0001) %MON dynstat_wvel_max             =   3.8967964385850E-15
(PID.TID 0000.0001) %MON dynstat_wvel_min             =  -7.1241098120733E-15
(PID.TID 0000.0001) %MON dynstat_wvel_mean            =   1.1563106824310E-28
(PID.TID 0000.0001) %MON dynstat_wvel_sd              =   2.9014229435828E-15
(PID.TID 0000.0001) %MON dynstat_wvel_del2            =   1.7559832771611E-20
(PID.TID 0000.0001) %MON dynstat_theta_max            =   2.0000000000000E+01
(PID.TID 0000.0001) %MON dynstat_theta_min            =   2.0000000000000E+01
(PID.TID 0000.0001) %MON dynstat_theta_mean           =   2.0000000000000E+01
(PID.TID 0000.0001) %MON dynstat_theta_sd             =   0.0000000000000E+00
(PID.TID 0000.0001) %MON dynstat_theta_del2           =   0.0000000000000E+00
(PID.TID 0000.0001) %MON dynstat_salt_max             =   3.0000000000000E+01
(PID.TID 0000.0001) %MON dynstat_salt_min             =   3.0000000000000E+01
(PID.TID 0000.0001) %MON dynstat_salt_mean            =   3.0000000000000E+01
(PID.TID 0000.0001) %MON dynstat_salt_sd              =   0.0000000000000E+00
(PID.TID 0000.0001) %MON dynstat_salt_del2            =   0.0000000000000E+00
(PID.TID 0000.0001) %MON trAdv_CFL_u_max              =   1.8247013145665E-09
(PID.TID 0000.0001) %MON trAdv_CFL_v_max              =   2.3766929835459E-09
(PID.TID 0000.0001) %MON trAdv_CFL_w_max              =   4.1718780718014E-15
(PID.TID 0000.0001) %MON advcfl_uvel_max              =   1.8304983390060E-09
(PID.TID 0000.0001) %MON advcfl_vvel_max              =   2.3791036704425E-09
(PID.TID 0000.0001) %MON advcfl_wvel_max              =   1.5388077194078E-14
(PID.TID 0000.0001) %MON advcfl_W_hf_max              =   0.0000000000000E+00
(PID.TID 0000.0001) %MON pe_b_mean                    =   1.2811562958434E-21
(PID.TID 0000.0001) %MON ke_max                       =   2.4383551053463E-18
(PID.TID 0000.0001) %MON ke_mean                      =   4.0989557262652E-19
(PID.TID 0000.0001) %MON ke_vol                       =   7.5645000000000E+15
(PID.TID 0000.0001) %MON vort_r_min                   =  -9.4595007996689E-14
(PID.TID 0000.0001) %MON vort_r_max                   =   8.9811313199985E-14
(PID.TID 0000.0001) %MON vort_a_mean                  =   8.2299999999999E-05
(PID.TID 0000.0001) %MON vort_a_sd                    =   7.1297555115747E-06
(PID.TID 0000.0001) %MON vort_p_mean                  =   8.3303658536584E-05
(PID.TID 0000.0001) %MON vort_p_sd                    =   1.7411470229534E-05
(PID.TID 0000.0001) %MON surfExpan_theta_mean         =   2.3725510985947E-27
(PID.TID 0000.0001) %MON surfExpan_salt_mean          =   3.5386448799962E-27
(PID.TID 0000.0001) // =======================================================
(PID.TID 0000.0001) // End MONITOR dynamic field statistics
(PID.TID 0000.0001) // =======================================================
 cg2d: Sum(rhs),rhsMax =  -2.06485537787307E-02  1.97011858603105E-10
 cg2d: Sum(rhs),rhsMax =  -2.07461536628058E-02  1.96085021048976E-10
 cg2d: Sum(rhs),rhsMax =  -2.08481560223593E-02  1.95125650177133E-10
 cg2d: Sum(rhs),rhsMax =  -2.09541326164110E-02  1.94138793362730E-10
 cg2d: Sum(rhs),rhsMax =  -2.10648453042486E-02  1.93118438802278E-10
 cg2d: Sum(rhs),rhsMax =  -2.11804170086556E-02  1.92064681847302E-10
 cg2d: Sum(rhs),rhsMax =  -2.13009774419689E-02  1.90977624367287E-10
 cg2d: Sum(rhs),rhsMax =  -2.13371114466815E-02  1.90654208000518E-10
 cg2d: Sum(rhs),rhsMax =  -2.13435414907885E-02  1.90596771306516E-10
 cg2d: Sum(rhs),rhsMax =  -2.13530493006734E-02  1.90511905505225E-10
 cg2d: Sum(rhs),rhsMax =  -2.13656380257213E-02  1.90399655685552E-10
 cg2d: Sum(rhs),rhsMax =  -2.13813129383729E-02  1.90260071858656E-10
 cg2d: Sum(rhs),rhsMax =  -2.13982350078435E-02  1.90109611852984E-10
 cg2d: Sum(rhs),rhsMax =  -2.14141726678767E-02  1.89968122026695E-10
 cg2d: Sum(rhs),rhsMax =  -2.14332297471130E-02  1.89799214912494E-10
 cg2d: Sum(rhs),rhsMax =  -2.14554157466424E-02  1.89602953377178E-10
(PID.TID 0000.0001)      cg2d_init_res =   3.88277619499298E-01
(PID.TID 0000.0001)      cg2d_iters(min,last) =      -1     551
(PID.TID 0000.0001)      cg2d_last_res =   9.65942177627017E-08
(PID.TID 0000.0001) // =======================================================
(PID.TID 0000.0001) // Begin MONITOR dynamic field statistics
(PID.TID 0000.0001) // =======================================================
(PID.TID 0000.0001) %MON time_tsnumber                =                  4576
(PID.TID 0000.0001) %MON time_secondsf                =   2.4710400000000E+07
(PID.TID 0000.0001) %MON dynstat_eta_max              =   2.1761025849897E-09
(PID.TID 0000.0001) %MON dynstat_eta_min              =  -2.9852248320571E-09
(PID.TID 0000.0001) %MON dynstat_eta_mean             =   3.9203905609308E-13
(PID.TID 0000.0001) %MON dynstat_eta_sd               =   1.1426869453890E-09
(PID.TID 0000.0001) %MON dynstat_eta_del2             =   8.4993090771190E-15
(PID.TID 0000.0001) %MON dynstat_uvel_max             =   1.7630806129177E-09
(PID.TID 0000.0001) %MON dynstat_uvel_min             =  -8.6546680676189E-10
(PID.TID 0000.0001) %MON dynstat_uvel_mean            =   3.9918677063584E-14
(PID.TID 0000.0001) %MON dynstat_uvel_sd              =   4.2559741606044E-10
(PID.TID 0000.0001) %MON dynstat_uvel_del2            =   3.7396486877277E-14
(PID.TID 0000.0001) %MON dynstat_vvel_max             =   2.2301679252520E-09
(PID.TID 0000.0001) %MON dynstat_vvel_min             =  -1.5688857796027E-09
(PID.TID 0000.0001) %MON dynstat_vvel_mean            =   1.2277656901059E-14
(PID.TID 0000.0001) %MON dynstat_vvel_sd              =   7.9441998035544E-10
(PID.TID 0000.0001) %MON dynstat_vvel_del2            =   3.8923797412141E-14
(PID.TID 0000.0001) %MON dynstat_wvel_max             =   4.4219748090990E-15
(PID.TID 0000.0001) %MON dynstat_wvel_min             =  -6.9845117764422E-15
(PID.TID 0000.0001) %MON dynstat_wvel_mean            =  -6.1939597965215E-29
(PID.TID 0000.0001) %MON dynstat_wvel_sd              =   2.8963561880225E-15
(PID.TID 0000.0001) %MON dynstat_wvel_del2            =   1.7789662345040E-20
(PID.TID 0000.0001) %MON dynstat_theta_max            =   2.0000000000000E+01
(PID.TID 0000.0001) %MON dynstat_theta_min            =   2.0000000000000E+01
(PID.TID 0000.0001) %MON dynstat_theta_mean           =   2.0000000000000E+01
(PID.TID 0000.0001) %MON dynstat_theta_sd             =   0.0000000000000E+00
(PID.TID 0000.0001) %MON dynstat_theta_del2           =   0.0000000000000E+00
(PID.TID 0000.0001) %MON dynstat_salt_max             =   3.0000000000000E+01
(PID.TID 0000.0001) %MON dynstat_salt_min             =   3.0000000000000E+01
(PID.TID 0000.0001) %MON dynstat_salt_mean            =   3.0000000000000E+01
(PID.TID 0000.0001) %MON dynstat_salt_sd              =   0.0000000000000E+00
(PID.TID 0000.0001) %MON dynstat_salt_del2            =   0.0000000000000E+00
(PID.TID 0000.0001) %MON trAdv_CFL_u_max              =   1.9002773958023E-09
(PID.TID 0000.0001) %MON trAdv_CFL_v_max              =   2.4075639099753E-09
(PID.TID 0000.0001) %MON trAdv_CFL_w_max              =   4.7417890407186E-15
(PID.TID 0000.0001) %MON advcfl_uvel_max              =   1.9041270619511E-09
(PID.TID 0000.0001) %MON advcfl_vvel_max              =   2.4085813592722E-09
(PID.TID 0000.0001) %MON advcfl_wvel_max              =   1.5086545437115E-14
(PID.TID 0000.0001) %MON advcfl_W_hf_max              =   0.0000000000000E+00
(PID.TID 0000.0001) %MON pe_b_mean                    =   1.2809246702887E-21
(PID.TID 0000.0001) %MON ke_max                       =   2.5003925461669E-18
(PID.TID 0000.0001) %MON ke_mean                      =   4.0446724702221E-19
(PID.TID 0000.0001) %MON ke_vol                       =   7.5645000000000E+15
(PID.TID 0000.0001) %MON vort_r_min                   =  -9.5346416172327E-14
(PID.TID 0000.0001) %MON vort_r_max                   =   8.3724940084028E-14
(PID.TID 0000.0001) %MON vort_a_mean                  =   8.2300000000000E-05
(PID.TID 0000.0001) %MON vort_a_sd                    =   7.1297555115592E-06
(PID.TID 0000.0001) %MON vort_p_mean                  =   8.3303658536586E-05
(PID.TID 0000.0001) %MON vort_p_sd                    =   1.7411470229486E-05
(PID.TID 0000.0001) %MON surfExpan_theta_mean         =  -1.2676851069426E-27
(PID.TID 0000.0001) %MON surfExpan_salt_mean          =  -1.8909443675313E-27
(PID.TID 0000.0001) // =======================================================
(PID.TID 0000.0001) // End MONITOR dynamic field statistics
(PID.TID 0000.0001) // =======================================================
 cg2d: Sum(rhs),rhsMax =  -2.14807422749887E-02  1.89379405679996E-10
 cg2d: Sum(rhs),rhsMax =  -2.15064256804380E-02  1.89153245644476E-10
 cg2d: Sum(rhs),rhsMax =  -2.15321919621322E-02  1.88926897971455E-10
 cg2d: Sum(rhs),rhsMax =  -2.15611426380533E-02  1.88673221803900E-10
 cg2d: Sum(rhs),rhsMax =  -2.15932938428634E-02  1.88392298514361E-10
 cg2d: Sum(rhs),rhsMax =  -2.16286639830735E-02  1.88084214316469E-10
 cg2d: Sum(rhs),rhsMax =  -2.16634228840342E-02  1.87782434277955E-10
 cg2d: Sum(rhs),rhsMax =  -2.16994411393188E-02  1.87470740379365E-10
 cg2d: Sum(rhs),rhsMax =  -2.17387341839385E-02  1.87131885023479E-10
 cg2d: Sum(rhs),rhsMax =  -2.17813253867194E-02  1.86765967845772E-10
 cg2d: Sum(rhs),rhsMax =  -2.18272404692914E-02  1.86373093453549E-10
 cg2d: Sum(rhs),rhsMax =  -2.18714889436012E-02  1.85996040288595E-10
 cg2d: Sum(rhs),rhsMax =  -2.19182970039939E-02  1.85598833252297E-10
 cg2d: Sum(rhs),rhsMax =  -2.19684986076750E-02  1.85174710326244E-10
 cg2d: Sum(rhs),rhsMax =  -2.20221249971434E-02  1.84723789363160E-10
 cg2d: Sum(rhs),rhsMax =  -2.20787157114010E-02  1.84250318036782E-10
(PID.TID 0000.0001)      cg2d_init_res =   4.06726783059485E-01
(PID.TID 0000.0001)      cg2d_iters(min,last) =      -1     552
(PID.TID 0000.0001)      cg2d_last_res =   9.28185889846476E-08
(PID.TID 0000.0001) // =======================================================
(PID.TID 0000.0001) // Begin MONITOR dynamic field statistics
(PID.TID 0000.0001) // =======================================================
(PID.TID 0000.0001) %MON time_tsnumber                =                  4592
(PID.TID 0000.0001) %MON time_secondsf                =   2.4796800000000E+07
(PID.TID 0000.0001) %MON dynstat_eta_max              =   2.0244432291996E-09
(PID.TID 0000.0001) %MON dynstat_eta_min              =  -2.9630087177820E-09
(PID.TID 0000.0001) %MON dynstat_eta_mean             =   3.9203907527124E-13
(PID.TID 0000.0001) %MON dynstat_eta_sd               =   1.1412019160950E-09
(PID.TID 0000.0001) %MON dynstat_eta_del2             =   8.3052046402562E-15
(PID.TID 0000.0001) %MON dynstat_uvel_max             =   1.7993828055094E-09
(PID.TID 0000.0001) %MON dynstat_uvel_min             =  -9.3233256264445E-10
(PID.TID 0000.0001) %MON dynstat_uvel_mean            =   6.9141512870399E-14
(PID.TID 0000.0001) %MON dynstat_uvel_sd              =   4.4677115875003E-10
(PID.TID 0000.0001) %MON dynstat_uvel_del2            =   3.7940610768992E-14
(PID.TID 0000.0001) %MON dynstat_vvel_max             =   2.2325426395086E-09
(PID.TID 0000.0001) %MON dynstat_vvel_min             =  -1.5535969068979E-09
(PID.TID 0000.0001) %MON dynstat_vvel_mean            =   1.0540397466840E-14
(PID.TID 0000.0001) %MON dynstat_vvel_sd              =   7.7599857008220E-10
(PID.TID 0000.0001) %MON dynstat_vvel_del2            =   3.9395535427332E-14
(PID.TID 0000.0001) %MON dynstat_wvel_max             =   4.9098721149887E-15
(PID.TID 0000.0001) %MON dynstat_wvel_min             =  -6.8406197070714E-15
(PID.TID 0000.0001) %MON dynstat_wvel_mean            =   1.4645233675954E-28
(PID.TID 0000.0001) %MON dynstat_wvel_sd              =   2.8941326168359E-15
(PID.TID 0000.0001) %MON dynstat_wvel_del2            =   1.8073002719324E-20
(PID.TID 0000.0001) %MON dynstat_theta_max            =   2.0000000000000E+01
(PID.TID 0000.0001) %MON dynstat_theta_min            =   2.0000000000000E+01
(PID.TID 0000.0001) %MON dynstat_theta_mean           =   2.0000000000000E+01
(PID.TID 0000.0001) %MON dynstat_theta_sd             =   0.0000000000000E+00
(PID.TID 0000.0001) %MON dynstat_theta_del2           =   0.0000000000000E+00
(PID.TID 0000.0001) %MON dynstat_salt_max             =   3.0000000000000E+01
(PID.TID 0000.0001) %MON dynstat_salt_min             =   3.0000000000000E+01
(PID.TID 0000.0001) %MON dynstat_salt_mean            =   3.0000000000000E+01
(PID.TID 0000.0001) %MON dynstat_salt_sd              =   0.0000000000000E+00
(PID.TID 0000.0001) %MON dynstat_salt_del2            =   0.0000000000000E+00
(PID.TID 0000.0001) %MON trAdv_CFL_u_max              =   1.9418817525430E-09
(PID.TID 0000.0001) %MON trAdv_CFL_v_max              =   2.4115810166344E-09
(PID.TID 0000.0001) %MON trAdv_CFL_w_max              =   5.2705661902852E-15
(PID.TID 0000.0001) %MON advcfl_uvel_max              =   1.9433334299502E-09
(PID.TID 0000.0001) %MON advcfl_vvel_max              =   2.4111460506693E-09
(PID.TID 0000.0001) %MON advcfl_wvel_max              =   1.4775738567274E-14
(PID.TID 0000.0001) %MON advcfl_W_hf_max              =   0.0000000000000E+00
(PID.TID 0000.0001) %MON pe_b_mean                    =   1.2775974696207E-21
(PID.TID 0000.0001) %MON ke_max                       =   2.5061386568074E-18
(PID.TID 0000.0001) %MON ke_mean                      =   3.9925949637859E-19
(PID.TID 0000.0001) %MON ke_vol                       =   7.5645000000000E+15
(PID.TID 0000.0001) %MON vort_r_min                   =  -9.4056279983669E-14
(PID.TID 0000.0001) %MON vort_r_max                   =   7.4178591979395E-14
(PID.TID 0000.0001) %MON vort_a_mean                  =   8.2300000000000E-05
(PID.TID 0000.0001) %MON vort_a_sd                    =   7.1297555115656E-06
(PID.TID 0000.0001) %MON vort_p_mean                  =   8.3303658536585E-05
(PID.TID 0000.0001) %MON vort_p_sd                    =   1.7411470229450E-05
(PID.TID 0000.0001) %MON surfExpan_theta_mean         =   2.9428754189383E-27
(PID.TID 0000.0001) %MON surfExpan_salt_mean          =   4.3462280053658E-27
(PID.TID 0000.0001) // =======================================================
(PID.TID 0000.0001) // End MONITOR dynamic field statistics
(PID.TID 0000.0001) // =======================================================
 cg2d: Sum(rhs),rhsMax =  -2.21334744566868E-02  1.83794478905840E-10
 cg2d: Sum(rhs),rhsMax =  -2.21917400854103E-02  1.83311917023647E-10
 cg2d: Sum(rhs),rhsMax =  -2.22535499609481E-02  1.82802763478125E-10
 cg2d: Sum(rhs),rhsMax =  -2.23189441899808E-02  1.82267154220099E-10
 cg2d: Sum(rhs),rhsMax =  -2.23860447138797E-02  1.81720822443391E-10
 cg2d: Sum(rhs),rhsMax =  -2.24529006498567E-02  1.81179729625777E-10
 cg2d: Sum(rhs),rhsMax =  -2.25234411476058E-02  1.80612298747568E-10
 cg2d: Sum(rhs),rhsMax =  -2.25977133042313E-02  1.80018678897162E-10
 cg2d: Sum(rhs),rhsMax =  -2.26757672327583E-02  1.79399023935906E-10
 cg2d: Sum(rhs),rhsMax =  -2.27541610303573E-02  1.78780949814742E-10
 cg2d: Sum(rhs),rhsMax =  -2.28340646254300E-02  1.78155339383357E-10
 cg2d: Sum(rhs),rhsMax =  -2.29178716729842E-02  1.77503853881477E-10
 cg2d: Sum(rhs),rhsMax =  -2.30056404251529E-02  1.76826660029983E-10
 cg2d: Sum(rhs),rhsMax =  -2.30974325006781E-02  1.76123929368726E-10
 cg2d: Sum(rhs),rhsMax =  -2.31880719173034E-02  1.75435482416208E-10
 cg2d: Sum(rhs),rhsMax =  -2.32821722470717E-02  1.74726419471818E-10
(PID.TID 0000.0001)      cg2d_init_res =   4.35377138441820E-01
(PID.TID 0000.0001)      cg2d_iters(min,last) =      -1     553
(PID.TID 0000.0001)      cg2d_last_res =   9.47864812048297E-08
(PID.TID 0000.0001) // =======================================================
(PID.TID 0000.0001) // Begin MONITOR dynamic field statistics
(PID.TID 0000.0001) // =======================================================
(PID.TID 0000.0001) %MON time_tsnumber                =                  4608
(PID.TID 0000.0001) %MON time_secondsf                =   2.4883200000000E+07
(PID.TID 0000.0001) %MON dynstat_eta_max              =   1.8533058780040E-09
(PID.TID 0000.0001) %MON dynstat_eta_min              =  -2.9158247637205E-09
(PID.TID 0000.0001) %MON dynstat_eta_mean             =   3.9203909471684E-13
(PID.TID 0000.0001) %MON dynstat_eta_sd               =   1.1386875281011E-09
(PID.TID 0000.0001) %MON dynstat_eta_del2             =   8.1053286777269E-15
(PID.TID 0000.0001) %MON dynstat_uvel_max             =   1.8007812514620E-09
(PID.TID 0000.0001) %MON dynstat_uvel_min             =  -1.0137485452044E-09
(PID.TID 0000.0001) %MON dynstat_uvel_mean            =   9.4792672999576E-14
(PID.TID 0000.0001) %MON dynstat_uvel_sd              =   4.7056368000312E-10
(PID.TID 0000.0001) %MON dynstat_uvel_del2            =   3.7936280240443E-14
(PID.TID 0000.0001) %MON dynstat_vvel_max             =   2.2114330642136E-09
(PID.TID 0000.0001) %MON dynstat_vvel_min             =  -1.5433673745491E-09
(PID.TID 0000.0001) %MON dynstat_vvel_mean            =   8.3273858981293E-15
(PID.TID 0000.0001) %MON dynstat_vvel_sd              =   7.5517960658670E-10
(PID.TID 0000.0001) %MON dynstat_vvel_del2            =   4.0740069413939E-14
(PID.TID 0000.0001) %MON dynstat_wvel_max             =   5.3439050851090E-15
(PID.TID 0000.0001) %MON dynstat_wvel_min             =  -6.6691142319719E-15
(PID.TID 0000.0001) %MON dynstat_wvel_mean            =  -1.7570899024714E-28
(PID.TID 0000.0001) %MON dynstat_wvel_sd              =   2.8928079352130E-15
(PID.TID 0000.0001) %MON dynstat_wvel_del2            =   1.8365946716484E-20
(PID.TID 0000.0001) %MON dynstat_theta_max            =   2.0000000000000E+01
(PID.TID 0000.0001) %MON dynstat_theta_min            =   2.0000000000000E+01
(PID.TID 0000.0001) %MON dynstat_theta_mean           =   2.0000000000000E+01
(PID.TID 0000.0001) %MON dynstat_theta_sd             =   0.0000000000000E+00
(PID.TID 0000.0001) %MON dynstat_theta_del2           =   0.0000000000000E+00
(PID.TID 0000.0001) %MON dynstat_salt_max             =   3.0000000000000E+01
(PID.TID 0000.0001) %MON dynstat_salt_min             =   3.0000000000000E+01
(PID.TID 0000.0001) %MON dynstat_salt_mean            =   3.0000000000000E+01
(PID.TID 0000.0001) %MON dynstat_salt_sd              =   0.0000000000000E+00
(PID.TID 0000.0001) %MON dynstat_salt_del2            =   0.0000000000000E+00
(PID.TID 0000.0001) %MON trAdv_CFL_u_max              =   1.9461056972461E-09
(PID.TID 0000.0001) %MON trAdv_CFL_v_max              =   2.3902718382578E-09
(PID.TID 0000.0001) %MON trAdv_CFL_w_max              =   5.7446415604456E-15
(PID.TID 0000.0001) %MON advcfl_uvel_max              =   1.9448437515790E-09
(PID.TID 0000.0001) %MON advcfl_vvel_max              =   2.3883477093507E-09
(PID.TID 0000.0001) %MON advcfl_wvel_max              =   1.4405286741059E-14
(PID.TID 0000.0001) %MON advcfl_W_hf_max              =   0.0000000000000E+00
(PID.TID 0000.0001) %MON pe_b_mean                    =   1.2719738609809E-21
(PID.TID 0000.0001) %MON ke_max                       =   2.4578535231706E-18
(PID.TID 0000.0001) %MON ke_mean                      =   3.9425401204957E-19
(PID.TID 0000.0001) %MON ke_vol                       =   7.5645000000000E+15
(PID.TID 0000.0001) %MON vort_r_min                   =  -9.0660344196354E-14
(PID.TID 0000.0001) %MON vort_r_max                   =   6.1403424119620E-14
(PID.TID 0000.0001) %MON vort_a_mean                  =   8.2300000000001E-05
(PID.TID 0000.0001) %MON vort_a_sd                    =   7.1297555115500E-06
(PID.TID 0000.0001) %MON vort_p_mean                  =   8.3303658536586E-05
(PID.TID 0000.0001) %MON vort_p_sd                    =   1.7411470229412E-05
(PID.TID 0000.0001) %MON surfExpan_theta_mean         =  -3.5282613220624E-27
(PID.TID 0000.0001) %MON surfExpan_salt_mean          =  -5.2327184727684E-27
(PID.TID 0000.0001) // =======================================================
(PID.TID 0000.0001) // End MONITOR dynamic field statistics
(PID.TID 0000.0001) // =======================================================
 cg2d: Sum(rhs),rhsMax =  -2.33804433493373E-02  1.73992021677882E-10
 cg2d: Sum(rhs),rhsMax =  -2.34829564041911E-02  1.73232473330182E-10
 cg2d: Sum(rhs),rhsMax =  -2.35885550605385E-02  1.72456965825440E-10
 cg2d: Sum(rhs),rhsMax =  -2.36938243328145E-02  1.71690757515023E-10
 cg2d: Sum(rhs),rhsMax =  -2.38035071391795E-02  1.70899634139983E-10
 cg2d: Sum(rhs),rhsMax =  -2.39176855900340E-02  1.70083792607978E-10
 cg2d: Sum(rhs),rhsMax =  -2.40364461149625E-02  1.69243434279301E-10
 cg2d: Sum(rhs),rhsMax =  -2.41565636941133E-02  1.68401878462048E-10
 cg2d: Sum(rhs),rhsMax =  -2.42787095826157E-02  1.67554651243463E-10
 cg2d: Sum(rhs),rhsMax =  -2.44056457060679E-02  1.66683183764357E-10
 cg2d: Sum(rhs),rhsMax =  -2.45374716468911E-02  1.65787689905507E-10
 cg2d: Sum(rhs),rhsMax =  -2.46742920884187E-02  1.64868387536033E-10
 cg2d: Sum(rhs),rhsMax =  -2.48105654768589E-02  1.63962839334039E-10
 cg2d: Sum(rhs),rhsMax =  -2.47110853267810E-02  1.64622909853616E-10
 cg2d: Sum(rhs),rhsMax =  -2.45859381288915E-02  1.65460872918750E-10
 cg2d: Sum(rhs),rhsMax =  -2.44630149491190E-02  1.66292290826365E-10
(PID.TID 0000.0001)      cg2d_init_res =   4.62059691158897E-01
(PID.TID 0000.0001)      cg2d_iters(min,last) =      -1     554
(PID.TID 0000.0001)      cg2d_last_res =   9.25608366513394E-08
(PID.TID 0000.0001) // =======================================================
(PID.TID 0000.0001) // Begin MONITOR dynamic field statistics
(PID.TID 0000.0001) // =======================================================
(PID.TID 0000.0001) %MON time_tsnumber                =                  4624
(PID.TID 0000.0001) %MON time_secondsf                =   2.4969600000000E+07
(PID.TID 0000.0001) %MON dynstat_eta_max              =   1.6703634400020E-09
(PID.TID 0000.0001) %MON dynstat_eta_min              =  -2.8537001188406E-09
(PID.TID 0000.0001) %MON dynstat_eta_mean             =   3.9203911400689E-13
(PID.TID 0000.0001) %MON dynstat_eta_sd               =   1.1356087177584E-09
(PID.TID 0000.0001) %MON dynstat_eta_del2             =   7.9222327944068E-15
(PID.TID 0000.0001) %MON dynstat_uvel_max             =   1.7675216247297E-09
(PID.TID 0000.0001) %MON dynstat_uvel_min             =  -1.0768126911474E-09
(PID.TID 0000.0001) %MON dynstat_uvel_mean            =   1.1552334672073E-13
(PID.TID 0000.0001) %MON dynstat_uvel_sd              =   4.9271420724476E-10
(PID.TID 0000.0001) %MON dynstat_uvel_del2            =   3.7346715977385E-14
(PID.TID 0000.0001) %MON dynstat_vvel_max             =   2.1681580651247E-09
(PID.TID 0000.0001) %MON dynstat_vvel_min             =  -1.5052679804873E-09
(PID.TID 0000.0001) %MON dynstat_vvel_mean            =   5.7111239745543E-15
(PID.TID 0000.0001) %MON dynstat_vvel_sd              =   7.3431809902075E-10
(PID.TID 0000.0001) %MON dynstat_vvel_del2            =   4.2800892365788E-14
(PID.TID 0000.0001) %MON dynstat_wvel_max             =   5.7140561074420E-15
(PID.TID 0000.0001) %MON dynstat_wvel_min             =  -6.4520361581222E-15
(PID.TID 0000.0001) %MON dynstat_wvel_mean            =  -4.0481478341195E-29
(PID.TID 0000.0001) %MON dynstat_wvel_sd              =   2.8901362688765E-15
(PID.TID 0000.0001) %MON dynstat_wvel_del2            =   1.8624257669346E-20
(PID.TID 0000.0001) %MON dynstat_theta_max            =   2.0000000000000E+01
(PID.TID 0000.0001) %MON dynstat_theta_min            =   2.0000000000000E+01
(PID.TID 0000.0001) %MON dynstat_theta_mean           =   2.0000000000000E+01
(PID.TID 0000.0001) %MON dynstat_theta_sd             =   0.0000000000000E+00
(PID.TID 0000.0001) %MON dynstat_theta_del2           =   0.0000000000000E+00
(PID.TID 0000.0001) %MON dynstat_salt_max             =   3.0000000000000E+01
(PID.TID 0000.0001) %MON dynstat_salt_min             =   3.0000000000000E+01
(PID.TID 0000.0001) %MON dynstat_salt_mean            =   3.0000000000000E+01
(PID.TID 0000.0001) %MON dynstat_salt_sd              =   0.0000000000000E+00
(PID.TID 0000.0001) %MON dynstat_salt_del2            =   0.0000000000000E+00
(PID.TID 0000.0001) %MON trAdv_CFL_u_max              =   1.9123284770857E-09
(PID.TID 0000.0001) %MON trAdv_CFL_v_max              =   2.3450324851037E-09
(PID.TID 0000.0001) %MON trAdv_CFL_w_max              =   6.1490139728004E-15
(PID.TID 0000.0001) %MON advcfl_uvel_max              =   1.9089233547080E-09
(PID.TID 0000.0001) %MON advcfl_vvel_max              =   2.3416107103347E-09
(PID.TID 0000.0001) %MON advcfl_wvel_max              =   1.3936398101544E-14
(PID.TID 0000.0001) %MON advcfl_W_hf_max              =   0.0000000000000E+00
(PID.TID 0000.0001) %MON pe_b_mean                    =   1.2651047745863E-21
(PID.TID 0000.0001) %MON ke_max                       =   2.3599892413270E-18
(PID.TID 0000.0001) %MON ke_mean                      =   3.8940577564511E-19
(PID.TID 0000.0001) %MON ke_vol                       =   7.5645000000000E+15
(PID.TID 0000.0001) %MON vort_r_min                   =  -8.5186902199758E-14
(PID.TID 0000.0001) %MON vort_r_max                   =   5.2607141524904E-14
(PID.TID 0000.0001) %MON vort_a_mean                  =   8.2300000000001E-05
(PID.TID 0000.0001) %MON vort_a_sd                    =   7.1297555115533E-06
(PID.TID 0000.0001) %MON vort_p_mean                  =   8.3303658536586E-05
(PID.TID 0000.0001) %MON vort_p_sd                    =   1.7411470229388E-05
(PID.TID 0000.0001) %MON surfExpan_theta_mean         =  -7.8988551715836E-28
(PID.TID 0000.0001) %MON surfExpan_salt_mean          =  -1.1578826734602E-27
(PID.TID 0000.0001) // =======================================================
(PID.TID 0000.0001) // End MONITOR dynamic field statistics
(PID.TID 0000.0001) // =======================================================
 cg2d: Sum(rhs),rhsMax =  -2.43459983672801E-02  1.67091558356553E-10
 cg2d: Sum(rhs),rhsMax =  -2.42347679789676E-02  1.67858459422937E-10
 cg2d: Sum(rhs),rhsMax =  -2.41288686841247E-02  1.68595174764763E-10
 cg2d: Sum(rhs),rhsMax =  -2.40226487931696E-02  1.69340645236404E-10
 cg2d: Sum(rhs),rhsMax =  -2.39219540988585E-02  1.70053451576432E-10
 cg2d: Sum(rhs),rhsMax =  -2.38266849970965E-02  1.70733397384835E-10
 cg2d: Sum(rhs),rhsMax =  -2.37367483659399E-02  1.71380293063876E-10
 cg2d: Sum(rhs),rhsMax =  -2.36475286739513E-02  1.72026893897109E-10
 cg2d: Sum(rhs),rhsMax =  -2.35618483983559E-02  1.72652452882944E-10
 cg2d: Sum(rhs),rhsMax =  -2.34812977592571E-02  1.73244723443750E-10
 cg2d: Sum(rhs),rhsMax =  -2.34058008650592E-02  1.73803535901379E-10
 cg2d: Sum(rhs),rhsMax =  -2.33326309606467E-02  1.74348575336826E-10
 cg2d: Sum(rhs),rhsMax =  -2.32608899223055E-02  1.74886300368732E-10
 cg2d: Sum(rhs),rhsMax =  -2.31940377808435E-02  1.75390375592617E-10
 cg2d: Sum(rhs),rhsMax =  -2.31320138016344E-02  1.75860651341818E-10
 cg2d: Sum(rhs),rhsMax =  -2.30738215551219E-02  1.76304173097603E-10
(PID.TID 0000.0001)      cg2d_init_res =   4.37318214692604E-01
(PID.TID 0000.0001)      cg2d_iters(min,last) =      -1     553
(PID.TID 0000.0001)      cg2d_last_res =   8.99975407837989E-08
(PID.TID 0000.0001) // =======================================================
(PID.TID 0000.0001) // Begin MONITOR dynamic field statistics
(PID.TID 0000.0001) // =======================================================
(PID.TID 0000.0001) %MON time_tsnumber                =                  4640
(PID.TID 0000.0001) %MON time_secondsf                =   2.5056000000000E+07
(PID.TID 0000.0001) %MON dynstat_eta_max              =   1.4905585916877E-09
(PID.TID 0000.0001) %MON dynstat_eta_min              =  -2.7901241027233E-09
(PID.TID 0000.0001) %MON dynstat_eta_mean             =   3.9203913716779E-13
(PID.TID 0000.0001) %MON dynstat_eta_sd               =   1.1323874391360E-09
(PID.TID 0000.0001) %MON dynstat_eta_del2             =   7.7784550415851E-15
(PID.TID 0000.0001) %MON dynstat_uvel_max             =   1.6997061778880E-09
(PID.TID 0000.0001) %MON dynstat_uvel_min             =  -1.1182540646942E-09
(PID.TID 0000.0001) %MON dynstat_uvel_mean            =   1.3025598420119E-13
(PID.TID 0000.0001) %MON dynstat_uvel_sd              =   5.0962529943563E-10
(PID.TID 0000.0001) %MON dynstat_uvel_del2            =   3.6225155297680E-14
(PID.TID 0000.0001) %MON dynstat_vvel_max             =   2.1041123948463E-09
(PID.TID 0000.0001) %MON dynstat_vvel_min             =  -1.4542162083520E-09
(PID.TID 0000.0001) %MON dynstat_vvel_mean            =   2.7855203307245E-15
(PID.TID 0000.0001) %MON dynstat_vvel_sd              =   7.1604470846691E-10
(PID.TID 0000.0001) %MON dynstat_vvel_del2            =   4.5281645650127E-14
(PID.TID 0000.0001) %MON dynstat_wvel_max             =   6.0120810399522E-15
(PID.TID 0000.0001) %MON dynstat_wvel_min             =  -6.1893700206705E-15
(PID.TID 0000.0001) %MON dynstat_wvel_mean            =   7.3367686539603E-29
(PID.TID 0000.0001) %MON dynstat_wvel_sd              =   2.8841289019064E-15
(PID.TID 0000.0001) %MON dynstat_wvel_del2            =   1.8805093463415E-20
(PID.TID 0000.0001) %MON dynstat_theta_max            =   2.0000000000000E+01
(PID.TID 0000.0001) %MON dynstat_theta_min            =   2.0000000000000E+01
(PID.TID 0000.0001) %MON dynstat_theta_mean           =   2.0000000000000E+01
(PID.TID 0000.0001) %MON dynstat_theta_sd             =   0.0000000000000E+00
(PID.TID 0000.0001) %MON dynstat_theta_del2           =   0.0000000000000E+00
(PID.TID 0000.0001) %MON dynstat_salt_max             =   3.0000000000000E+01
(PID.TID 0000.0001) %MON dynstat_salt_min             =   3.0000000000000E+01
(PID.TID 0000.0001) %MON dynstat_salt_mean            =   3.0000000000000E+01
(PID.TID 0000.0001) %MON dynstat_salt_sd              =   0.0000000000000E+00
(PID.TID 0000.0001) %MON dynstat_salt_del2            =   0.0000000000000E+00
(PID.TID 0000.0001) %MON trAdv_CFL_u_max              =   1.8415453262378E-09
(PID.TID 0000.0001) %MON trAdv_CFL_v_max              =   2.2772872019439E-09
(PID.TID 0000.0001) %MON trAdv_CFL_w_max              =   6.4746653450687E-15
(PID.TID 0000.0001) %MON advcfl_uvel_max              =   1.8356826721191E-09
(PID.TID 0000.0001) %MON advcfl_vvel_max              =   2.2724413864340E-09
(PID.TID 0000.0001) %MON advcfl_wvel_max              =   1.3369039244648E-14
(PID.TID 0000.0001) %MON advcfl_W_hf_max              =   0.0000000000000E+00
(PID.TID 0000.0001) %MON pe_b_mean                    =   1.2579377381535E-21
(PID.TID 0000.0001) %MON ke_max                       =   2.2189002059574E-18
(PID.TID 0000.0001) %MON ke_mean                      =   3.8464899775216E-19
(PID.TID 0000.0001) %MON ke_vol                       =   7.5645000000000E+15
(PID.TID 0000.0001) %MON vort_r_min                   =  -7.7772844945281E-14
(PID.TID 0000.0001) %MON vort_r_max                   =   6.6737339143178E-14
(PID.TID 0000.0001) %MON vort_a_mean                  =   8.2300000000001E-05
(PID.TID 0000.0001) %MON vort_a_sd                    =   7.1297555115454E-06
(PID.TID 0000.0001) %MON vort_p_mean                  =   8.3303658536587E-05
(PID.TID 0000.0001) %MON vort_p_sd                    =   1.7411470229367E-05
(PID.TID 0000.0001) %MON surfExpan_theta_mean         =   1.4749139653813E-27
(PID.TID 0000.0001) %MON surfExpan_salt_mean          =   2.1993687207928E-27
(PID.TID 0000.0001) // =======================================================
(PID.TID 0000.0001) // End MONITOR dynamic field statistics
(PID.TID 0000.0001) // =======================================================
 cg2d: Sum(rhs),rhsMax =  -2.30151423886577E-02  1.76753677148370E-10
 cg2d: Sum(rhs),rhsMax =  -2.29611592865896E-02  1.77169236645019E-10
 cg2d: Sum(rhs),rhsMax =  -2.29118250609604E-02  1.77550721991030E-10
 cg2d: Sum(rhs),rhsMax =  -2.28397572225454E-02  1.78110960540152E-10
 cg2d: Sum(rhs),rhsMax =  -2.26404945010848E-02  1.79678545268945E-10
 cg2d: Sum(rhs),rhsMax =  -2.24473285479577E-02  1.81224733594238E-10
 cg2d: Sum(rhs),rhsMax =  -2.22603175436350E-02  1.82747220508800E-10
 cg2d: Sum(rhs),rhsMax =  -2.20797333676412E-02  1.84241861753552E-10
 cg2d: Sum(rhs),rhsMax =  -2.19053708240928E-02  1.85708392632765E-10
 cg2d: Sum(rhs),rhsMax =  -2.17368941552351E-02  1.87147768302615E-10
 cg2d: Sum(rhs),rhsMax =  -2.15733893852303E-02  1.88566162918851E-10
 cg2d: Sum(rhs),rhsMax =  -2.14155940546190E-02  1.89955565780205E-10
 cg2d: Sum(rhs),rhsMax =  -2.12633392086935E-02  1.91315732422164E-10
 cg2d: Sum(rhs),rhsMax =  -2.11164643987234E-02  1.92646423908315E-10
 cg2d: Sum(rhs),rhsMax =  -2.09746340509031E-02  1.93949099677377E-10
 cg2d: Sum(rhs),rhsMax =  -2.08372111526377E-02  1.95228209833592E-10
(PID.TID 0000.0001)      cg2d_init_res =   3.93349609654145E-01
(PID.TID 0000.0001)      cg2d_iters(min,last) =      -1     551
(PID.TID 0000.0001)      cg2d_last_res =   9.56424349727573E-08
(PID.TID 0000.0001) // =======================================================
(PID.TID 0000.0001) // Begin MONITOR dynamic field statistics
(PID.TID 0000.0001) // =======================================================
(PID.TID 0000.0001) %MON time_tsnumber                =                  4656
(PID.TID 0000.0001) %MON time_secondsf                =   2.5142400000000E+07
(PID.TID 0000.0001) %MON dynstat_eta_max              =   1.3626087595458E-09
(PID.TID 0000.0001) %MON dynstat_eta_min              =  -2.7421077037472E-09
(PID.TID 0000.0001) %MON dynstat_eta_mean             =   3.9203917864780E-13
(PID.TID 0000.0001) %MON dynstat_eta_sd               =   1.1292632589308E-09
(PID.TID 0000.0001) %MON dynstat_eta_del2             =   7.6923595454033E-15
(PID.TID 0000.0001) %MON dynstat_uvel_max             =   1.5958934381828E-09
(PID.TID 0000.0001) %MON dynstat_uvel_min             =  -1.1356316932346E-09
(PID.TID 0000.0001) %MON dynstat_uvel_mean            =   1.3824061165210E-13
(PID.TID 0000.0001) %MON dynstat_uvel_sd              =   5.1872188809026E-10
(PID.TID 0000.0001) %MON dynstat_uvel_del2            =   3.4714543565586E-14
(PID.TID 0000.0001) %MON dynstat_vvel_max             =   2.0205789316027E-09
(PID.TID 0000.0001) %MON dynstat_vvel_min             =  -1.3981099511802E-09
(PID.TID 0000.0001) %MON dynstat_vvel_mean            =  -3.3887539633308E-16
(PID.TID 0000.0001) %MON dynstat_vvel_sd              =   7.0273891017072E-10
(PID.TID 0000.0001) %MON dynstat_vvel_del2            =   4.7835385892203E-14
(PID.TID 0000.0001) %MON dynstat_wvel_max             =   6.2352864152460E-15
(PID.TID 0000.0001) %MON dynstat_wvel_min             =  -5.8895197564690E-15
(PID.TID 0000.0001) %MON dynstat_wvel_mean            =  -1.3225803307955E-28
(PID.TID 0000.0001) %MON dynstat_wvel_sd              =   2.8735310247347E-15
(PID.TID 0000.0001) %MON dynstat_wvel_del2            =   1.8880924947923E-20
(PID.TID 0000.0001) %MON dynstat_theta_max            =   2.0000000000000E+01
(PID.TID 0000.0001) %MON dynstat_theta_min            =   2.0000000000000E+01
(PID.TID 0000.0001) %MON dynstat_theta_mean           =   2.0000000000000E+01
(PID.TID 0000.0001) %MON dynstat_theta_sd             =   0.0000000000000E+00
(PID.TID 0000.0001) %MON dynstat_theta_del2           =   0.0000000000000E+00
(PID.TID 0000.0001) %MON dynstat_salt_max             =   3.0000000000000E+01
(PID.TID 0000.0001) %MON dynstat_salt_min             =   3.0000000000000E+01
(PID.TID 0000.0001) %MON dynstat_salt_mean            =   3.0000000000000E+01
(PID.TID 0000.0001) %MON dynstat_salt_sd              =   0.0000000000000E+00
(PID.TID 0000.0001) %MON dynstat_salt_del2            =   0.0000000000000E+00
(PID.TID 0000.0001) %MON trAdv_CFL_u_max              =   1.7316989500324E-09
(PID.TID 0000.0001) %MON trAdv_CFL_v_max              =   2.1884603634093E-09
(PID.TID 0000.0001) %MON trAdv_CFL_w_max              =   6.7206413888021E-15
(PID.TID 0000.0001) %MON advcfl_uvel_max              =   1.7235649132375E-09
(PID.TID 0000.0001) %MON advcfl_vvel_max              =   2.1822252461310E-09
(PID.TID 0000.0001) %MON advcfl_wvel_max              =   1.3468218656931E-14
(PID.TID 0000.0001) %MON advcfl_W_hf_max              =   0.0000000000000E+00
(PID.TID 0000.0001) %MON pe_b_mean                    =   1.2510061840941E-21
(PID.TID 0000.0001) %MON ke_max                       =   2.0427225084094E-18
(PID.TID 0000.0001) %MON ke_mean                      =   3.7990655707276E-19
(PID.TID 0000.0001) %MON ke_vol                       =   7.5645000000000E+15
(PID.TID 0000.0001) %MON vort_r_min                   =  -6.8579569083218E-14
(PID.TID 0000.0001) %MON vort_r_max                   =   7.8922777407887E-14
(PID.TID 0000.0001) %MON vort_a_mean                  =   8.2300000000000E-05
(PID.TID 0000.0001) %MON vort_a_sd                    =   7.1297555115606E-06
(PID.TID 0000.0001) %MON vort_p_mean                  =   8.3303658536585E-05
(PID.TID 0000.0001) %MON vort_p_sd                    =   1.7411470229364E-05
(PID.TID 0000.0001) %MON surfExpan_theta_mean         =  -2.6392766172482E-27
(PID.TID 0000.0001) %MON surfExpan_salt_mean          =  -3.9558725720912E-27
(PID.TID 0000.0001) // =======================================================
(PID.TID 0000.0001) // End MONITOR dynamic field statistics
(PID.TID 0000.0001) // =======================================================
 cg2d: Sum(rhs),rhsMax =  -2.07047676721630E-02  1.96477040541525E-10
 cg2d: Sum(rhs),rhsMax =  -2.05771709981192E-02  1.97695374376317E-10
 cg2d: Sum(rhs),rhsMax =  -2.04542951481657E-02  1.98882999763478E-10
 cg2d: Sum(rhs),rhsMax =  -2.03360203581484E-02  2.00039710997765E-10
 cg2d: Sum(rhs),rhsMax =  -2.02217237753511E-02  2.01170373299374E-10
 cg2d: Sum(rhs),rhsMax =  -2.01116085322207E-02  2.02271827886737E-10
 cg2d: Sum(rhs),rhsMax =  -2.00057965207958E-02  2.03341663107098E-10
 cg2d: Sum(rhs),rhsMax =  -1.99041889520462E-02  2.04379696025613E-10
 cg2d: Sum(rhs),rhsMax =  -1.98066920614326E-02  2.05385749786986E-10
 cg2d: Sum(rhs),rhsMax =  -1.97132171085758E-02  2.06359653662537E-10
 cg2d: Sum(rhs),rhsMax =  -1.96234288641537E-02  2.07303920900860E-10
 cg2d: Sum(rhs),rhsMax =  -1.95371521577958E-02  2.08219329549199E-10
 cg2d: Sum(rhs),rhsMax =  -1.94546804375983E-02  2.09101988869669E-10
 cg2d: Sum(rhs),rhsMax =  -1.93759381488740E-02  2.09951752017798E-10
 cg2d: Sum(rhs),rhsMax =  -1.93008557968375E-02  2.10768478446926E-10
 cg2d: Sum(rhs),rhsMax =  -1.92293678954855E-02  2.11552033933387E-10
(PID.TID 0000.0001)      cg2d_init_res =   3.58845651358288E-01
(PID.TID 0000.0001)      cg2d_iters(min,last) =      -1     550
(PID.TID 0000.0001)      cg2d_last_res =   9.19326831991605E-08
(PID.TID 0000.0001) // =======================================================
(PID.TID 0000.0001) // Begin MONITOR dynamic field statistics
(PID.TID 0000.0001) // =======================================================
(PID.TID 0000.0001) %MON time_tsnumber                =                  4672
(PID.TID 0000.0001) %MON time_secondsf                =   2.5228800000000E+07
(PID.TID 0000.0001) %MON dynstat_eta_max              =   1.5336673055896E-09
(PID.TID 0000.0001) %MON dynstat_eta_min              =  -2.6986674816978E-09
(PID.TID 0000.0001) %MON dynstat_eta_mean             =   3.9203920895408E-13
(PID.TID 0000.0001) %MON dynstat_eta_sd               =   1.1262061777841E-09
(PID.TID 0000.0001) %MON dynstat_eta_del2             =   7.6739668854353E-15
(PID.TID 0000.0001) %MON dynstat_uvel_max             =   1.4582148183588E-09
(PID.TID 0000.0001) %MON dynstat_uvel_min             =  -1.1958945280973E-09
(PID.TID 0000.0001) %MON dynstat_uvel_mean            =   1.3909291559989E-13
(PID.TID 0000.0001) %MON dynstat_uvel_sd              =   5.1857793236761E-10
(PID.TID 0000.0001) %MON dynstat_uvel_del2            =   3.3041089796456E-14
(PID.TID 0000.0001) %MON dynstat_vvel_max             =   1.9190587313316E-09
(PID.TID 0000.0001) %MON dynstat_vvel_min             =  -1.5329678986759E-09
(PID.TID 0000.0001) %MON dynstat_vvel_mean            =  -3.5405000284035E-15
(PID.TID 0000.0001) %MON dynstat_vvel_sd              =   6.9594689489966E-10
(PID.TID 0000.0001) %MON dynstat_vvel_del2            =   5.0135572570163E-14
(PID.TID 0000.0001) %MON dynstat_wvel_max             =   6.3880675693628E-15
(PID.TID 0000.0001) %MON dynstat_wvel_min             =  -5.5624196343418E-15
(PID.TID 0000.0001) %MON dynstat_wvel_mean            =   5.6940905670608E-29
(PID.TID 0000.0001) %MON dynstat_wvel_sd              =   2.8581192150375E-15
(PID.TID 0000.0001) %MON dynstat_wvel_del2            =   1.8814712373062E-20
(PID.TID 0000.0001) %MON dynstat_theta_max            =   2.0000000000000E+01
(PID.TID 0000.0001) %MON dynstat_theta_min            =   2.0000000000000E+01
(PID.TID 0000.0001) %MON dynstat_theta_mean           =   2.0000000000000E+01
(PID.TID 0000.0001) %MON dynstat_theta_sd             =   0.0000000000000E+00
(PID.TID 0000.0001) %MON dynstat_theta_del2           =   0.0000000000000E+00
(PID.TID 0000.0001) %MON dynstat_salt_max             =   3.0000000000000E+01
(PID.TID 0000.0001) %MON dynstat_salt_min             =   3.0000000000000E+01
(PID.TID 0000.0001) %MON dynstat_salt_mean            =   3.0000000000000E+01
(PID.TID 0000.0001) %MON dynstat_salt_sd              =   0.0000000000000E+00
(PID.TID 0000.0001) %MON dynstat_salt_del2            =   0.0000000000000E+00
(PID.TID 0000.0001) %MON trAdv_CFL_u_max              =   1.5850806390734E-09
(PID.TID 0000.0001) %MON trAdv_CFL_v_max              =   2.0801123700120E-09
(PID.TID 0000.0001) %MON trAdv_CFL_w_max              =   6.8907832679876E-15
(PID.TID 0000.0001) %MON advcfl_uvel_max              =   1.5748720038275E-09
(PID.TID 0000.0001) %MON advcfl_vvel_max              =   2.0725834298381E-09
(PID.TID 0000.0001) %MON advcfl_wvel_max              =   1.3798225949824E-14
(PID.TID 0000.0001) %MON advcfl_W_hf_max              =   0.0000000000000E+00
(PID.TID 0000.0001) %MON pe_b_mean                    =   1.2442420389110E-21
(PID.TID 0000.0001) %MON ke_max                       =   1.8412268380959E-18
(PID.TID 0000.0001) %MON ke_mean                      =   3.7510155913726E-19
(PID.TID 0000.0001) %MON ke_vol                       =   7.5645000000000E+15
(PID.TID 0000.0001) %MON vort_r_min                   =  -6.6508065660115E-14
(PID.TID 0000.0001) %MON vort_r_max                   =   8.8377931316214E-14
(PID.TID 0000.0001) %MON vort_a_mean                  =   8.2300000000000E-05
(PID.TID 0000.0001) %MON vort_a_sd                    =   7.1297555115649E-06
(PID.TID 0000.0001) %MON vort_p_mean                  =   8.3303658536585E-05
(PID.TID 0000.0001) %MON vort_p_sd                    =   1.7411470229366E-05
(PID.TID 0000.0001) %MON surfExpan_theta_mean         =   1.1377815273796E-27
(PID.TID 0000.0001) %MON surfExpan_salt_mean          =   1.7062722612982E-27
(PID.TID 0000.0001) // =======================================================
(PID.TID 0000.0001) // End MONITOR dynamic field statistics
(PID.TID 0000.0001) // =======================================================
 cg2d: Sum(rhs),rhsMax =  -1.91614126242435E-02  2.12302290604535E-10
 cg2d: Sum(rhs),rhsMax =  -1.90968982467229E-02  2.13019499609311E-10
 cg2d: Sum(rhs),rhsMax =  -1.90353620133345E-02  2.13708130764021E-10
 cg2d: Sum(rhs),rhsMax =  -1.89772101121658E-02  2.14362993656210E-10
 cg2d: Sum(rhs),rhsMax =  -1.89223932637536E-02  2.14983985341853E-10
 cg2d: Sum(rhs),rhsMax =  -1.88708651641116E-02  2.15571009347832E-10
 cg2d: Sum(rhs),rhsMax =  -1.88225826284890E-02  2.16123975717954E-10
 cg2d: Sum(rhs),rhsMax =  -1.87775052448154E-02  2.16642801014219E-10
 cg2d: Sum(rhs),rhsMax =  -1.87355954393070E-02  2.17127408282211E-10
 cg2d: Sum(rhs),rhsMax =  -1.86968182992325E-02  2.17577727128805E-10
 cg2d: Sum(rhs),rhsMax =  -1.86611291716103E-02  2.17993838836572E-10
 cg2d: Sum(rhs),rhsMax =  -1.86281674589858E-02  2.18379566903621E-10
 cg2d: Sum(rhs),rhsMax =  -1.85982620854455E-02  2.18730711609913E-10
 cg2d: Sum(rhs),rhsMax =  -1.85713879729799E-02  2.19047228401522E-10
 cg2d: Sum(rhs),rhsMax =  -1.85475224092495E-02  2.19329079464576E-10
 cg2d: Sum(rhs),rhsMax =  -1.85266452242680E-02  2.19576233213893E-10
(PID.TID 0000.0001)      cg2d_init_res =   3.39489151936307E-01
(PID.TID 0000.0001)      cg2d_iters(min,last) =      -1     548
(PID.TID 0000.0001)      cg2d_last_res =   9.95342490195053E-08
(PID.TID 0000.0001) // =======================================================
(PID.TID 0000.0001) // Begin MONITOR dynamic field statistics
(PID.TID 0000.0001) // =======================================================
(PID.TID 0000.0001) %MON time_tsnumber                =                  4688
(PID.TID 0000.0001) %MON time_secondsf                =   2.5315200000000E+07
(PID.TID 0000.0001) %MON dynstat_eta_max              =   1.6881757526826E-09
(PID.TID 0000.0001) %MON dynstat_eta_min              =  -2.6357614232860E-09
(PID.TID 0000.0001) %MON dynstat_eta_mean             =   3.9203912601853E-13
(PID.TID 0000.0001) %MON dynstat_eta_sd               =   1.1229054670819E-09
(PID.TID 0000.0001) %MON dynstat_eta_del2             =   7.7222244422823E-15
(PID.TID 0000.0001) %MON dynstat_uvel_max             =   1.2940491777369E-09
(PID.TID 0000.0001) %MON dynstat_uvel_min             =  -1.2374731083340E-09
(PID.TID 0000.0001) %MON dynstat_uvel_mean            =   1.3281217364482E-13
(PID.TID 0000.0001) %MON dynstat_uvel_sd              =   5.0894775327949E-10
(PID.TID 0000.0001) %MON dynstat_uvel_del2            =   3.1493804265008E-14
(PID.TID 0000.0001) %MON dynstat_vvel_max             =   1.8012264020340E-09
(PID.TID 0000.0001) %MON dynstat_vvel_min             =  -1.6539944408991E-09
(PID.TID 0000.0001) %MON dynstat_vvel_mean            =  -6.6929610953492E-15
(PID.TID 0000.0001) %MON dynstat_vvel_sd              =   6.9593994433954E-10
(PID.TID 0000.0001) %MON dynstat_vvel_del2            =   5.1916008861392E-14
(PID.TID 0000.0001) %MON dynstat_wvel_max             =   6.4822309903123E-15
(PID.TID 0000.0001) %MON dynstat_wvel_min             =  -5.2187075343102E-15
(PID.TID 0000.0001) %MON dynstat_wvel_mean            =   1.1938903379816E-28
(PID.TID 0000.0001) %MON dynstat_wvel_sd              =   2.8387658977780E-15
(PID.TID 0000.0001) %MON dynstat_wvel_del2            =   1.8619536999421E-20
(PID.TID 0000.0001) %MON dynstat_theta_max            =   2.0000000000000E+01
(PID.TID 0000.0001) %MON dynstat_theta_min            =   2.0000000000000E+01
(PID.TID 0000.0001) %MON dynstat_theta_mean           =   2.0000000000000E+01
(PID.TID 0000.0001) %MON dynstat_theta_sd             =   0.0000000000000E+00
(PID.TID 0000.0001) %MON dynstat_theta_del2           =   0.0000000000000E+00
(PID.TID 0000.0001) %MON dynstat_salt_max             =   3.0000000000000E+01
(PID.TID 0000.0001) %MON dynstat_salt_min             =   3.0000000000000E+01
(PID.TID 0000.0001) %MON dynstat_salt_mean            =   3.0000000000000E+01
(PID.TID 0000.0001) %MON dynstat_salt_sd              =   0.0000000000000E+00
(PID.TID 0000.0001) %MON dynstat_salt_del2            =   0.0000000000000E+00
(PID.TID 0000.0001) %MON trAdv_CFL_u_max              =   1.4093572446329E-09
(PID.TID 0000.0001) %MON trAdv_CFL_v_max              =   1.9540150602190E-09
(PID.TID 0000.0001) %MON trAdv_CFL_w_max              =   6.9964335827843E-15
(PID.TID 0000.0001) %MON advcfl_uvel_max              =   1.3975731119558E-09
(PID.TID 0000.0001) %MON advcfl_vvel_max              =   1.9453245141967E-09
(PID.TID 0000.0001) %MON advcfl_wvel_max              =   1.4001618939075E-14
(PID.TID 0000.0001) %MON advcfl_W_hf_max              =   0.0000000000000E+00
(PID.TID 0000.0001) %MON pe_b_mean                    =   1.2369594217048E-21
(PID.TID 0000.0001) %MON ke_max                       =   1.6255411548976E-18
(PID.TID 0000.0001) %MON ke_mean                      =   3.7016922489423E-19
(PID.TID 0000.0001) %MON ke_vol                       =   7.5645000000000E+15
(PID.TID 0000.0001) %MON vort_r_min                   =  -6.5969784779033E-14
(PID.TID 0000.0001) %MON vort_r_max                   =   9.4543629862690E-14
(PID.TID 0000.0001) %MON vort_a_mean                  =   8.2300000000000E-05
(PID.TID 0000.0001) %MON vort_a_sd                    =   7.1297555115647E-06
(PID.TID 0000.0001) %MON vort_p_mean                  =   8.3303658536585E-05
(PID.TID 0000.0001) %MON vort_p_sd                    =   1.7411470229375E-05
(PID.TID 0000.0001) %MON surfExpan_theta_mean         =   2.4100883918604E-27
(PID.TID 0000.0001) %MON surfExpan_salt_mean          =   3.6234948616356E-27
(PID.TID 0000.0001) // =======================================================
(PID.TID 0000.0001) // End MONITOR dynamic field statistics
(PID.TID 0000.0001) // =======================================================
 cg2d: Sum(rhs),rhsMax =  -1.85087385167127E-02  2.19788665064732E-10
 cg2d: Sum(rhs),rhsMax =  -1.84937867230656E-02  2.19966356901701E-10
 cg2d: Sum(rhs),rhsMax =  -1.84817765704096E-02  2.20109297231102E-10
 cg2d: Sum(rhs),rhsMax =  -1.84726970535266E-02  2.20217481166829E-10
 cg2d: Sum(rhs),rhsMax =  -1.84665394194627E-02  2.20290910431097E-10
 cg2d: Sum(rhs),rhsMax =  -1.84632971166955E-02  2.20329593349747E-10
 cg2d: Sum(rhs),rhsMax =  -1.84629658504043E-02  2.20333544846369E-10
 cg2d: Sum(rhs),rhsMax =  -1.84654008571210E-02  2.20304487952190E-10
 cg2d: Sum(rhs),rhsMax =  -1.84706686444920E-02  2.20241656007256E-10
 cg2d: Sum(rhs),rhsMax =  -1.84788572858886E-02  2.20144057372471E-10
 cg2d: Sum(rhs),rhsMax =  -1.84899710923086E-02  2.20011733298760E-10
 cg2d: Sum(rhs),rhsMax =  -1.85040165757234E-02  2.19844731616390E-10
 cg2d: Sum(rhs),rhsMax =  -1.85210025096840E-02  2.19643106720968E-10
 cg2d: Sum(rhs),rhsMax =  -1.85409398743710E-02  2.19406919558303E-10
 cg2d: Sum(rhs),rhsMax =  -1.85638419365220E-02  2.19136237608187E-10
 cg2d: Sum(rhs),rhsMax =  -1.85897242446310E-02  2.18831134866733E-10
(PID.TID 0000.0001)      cg2d_init_res =   3.32814289249109E-01
(PID.TID 0000.0001)      cg2d_iters(min,last) =      -1     548
(PID.TID 0000.0001)      cg2d_last_res =   9.88365254350864E-08
(PID.TID 0000.0001) // =======================================================
(PID.TID 0000.0001) // Begin MONITOR dynamic field statistics
(PID.TID 0000.0001) // =======================================================
(PID.TID 0000.0001) %MON time_tsnumber                =                  4704
(PID.TID 0000.0001) %MON time_secondsf                =   2.5401600000000E+07
(PID.TID 0000.0001) %MON dynstat_eta_max              =   1.8231219204363E-09
(PID.TID 0000.0001) %MON dynstat_eta_min              =  -2.5431828514950E-09
(PID.TID 0000.0001) %MON dynstat_eta_mean             =   3.9203907765090E-13
(PID.TID 0000.0001) %MON dynstat_eta_sd               =   1.1188383917666E-09
(PID.TID 0000.0001) %MON dynstat_eta_del2             =   7.8248971649169E-15
(PID.TID 0000.0001) %MON dynstat_uvel_max             =   1.3067319566281E-09
(PID.TID 0000.0001) %MON dynstat_uvel_min             =  -1.2435076295763E-09
(PID.TID 0000.0001) %MON dynstat_uvel_mean            =   1.1977823385193E-13
(PID.TID 0000.0001) %MON dynstat_uvel_sd              =   4.9076609914728E-10
(PID.TID 0000.0001) %MON dynstat_uvel_del2            =   3.0377051114123E-14
(PID.TID 0000.0001) %MON dynstat_vvel_max             =   1.6696098123542E-09
(PID.TID 0000.0001) %MON dynstat_vvel_min             =  -1.7528468779037E-09
(PID.TID 0000.0001) %MON dynstat_vvel_mean            =  -9.6714401473309E-15
(PID.TID 0000.0001) %MON dynstat_vvel_sd              =   7.0161469749598E-10
(PID.TID 0000.0001) %MON dynstat_vvel_del2            =   5.2988256998987E-14
(PID.TID 0000.0001) %MON dynstat_wvel_max             =   6.5339232757644E-15
(PID.TID 0000.0001) %MON dynstat_wvel_min             =  -4.8831366372681E-15
(PID.TID 0000.0001) %MON dynstat_wvel_mean            =  -1.4063545128472E-28
(PID.TID 0000.0001) %MON dynstat_wvel_sd              =   2.8172589877100E-15
(PID.TID 0000.0001) %MON dynstat_wvel_del2            =   1.8300145603461E-20
(PID.TID 0000.0001) %MON dynstat_theta_max            =   2.0000000000000E+01
(PID.TID 0000.0001) %MON dynstat_theta_min            =   2.0000000000000E+01
(PID.TID 0000.0001) %MON dynstat_theta_mean           =   2.0000000000000E+01
(PID.TID 0000.0001) %MON dynstat_theta_sd             =   0.0000000000000E+00
(PID.TID 0000.0001) %MON dynstat_theta_del2           =   0.0000000000000E+00
(PID.TID 0000.0001) %MON dynstat_salt_max             =   3.0000000000000E+01
(PID.TID 0000.0001) %MON dynstat_salt_min             =   3.0000000000000E+01
(PID.TID 0000.0001) %MON dynstat_salt_mean            =   3.0000000000000E+01
(PID.TID 0000.0001) %MON dynstat_salt_sd              =   0.0000000000000E+00
(PID.TID 0000.0001) %MON dynstat_salt_del2            =   0.0000000000000E+00
(PID.TID 0000.0001) %MON trAdv_CFL_u_max              =   1.4089583582400E-09
(PID.TID 0000.0001) %MON trAdv_CFL_v_max              =   1.8871469421381E-09
(PID.TID 0000.0001) %MON trAdv_CFL_w_max              =   7.0544683438811E-15
(PID.TID 0000.0001) %MON advcfl_uvel_max              =   1.4112705131584E-09
(PID.TID 0000.0001) %MON advcfl_vvel_max              =   1.8930746281360E-09
(PID.TID 0000.0001) %MON advcfl_wvel_max              =   1.4113274275651E-14
(PID.TID 0000.0001) %MON advcfl_W_hf_max              =   0.0000000000000E+00
(PID.TID 0000.0001) %MON pe_b_mean                    =   1.2280153100744E-21
(PID.TID 0000.0001) %MON ke_max                       =   1.5361006255974E-18
(PID.TID 0000.0001) %MON ke_mean                      =   3.6506721087900E-19
(PID.TID 0000.0001) %MON ke_vol                       =   7.5645000000000E+15
(PID.TID 0000.0001) %MON vort_r_min                   =  -6.5289094984010E-14
(PID.TID 0000.0001) %MON vort_r_max                   =   9.7076507505972E-14
(PID.TID 0000.0001) %MON vort_a_mean                  =   8.2299999999999E-05
(PID.TID 0000.0001) %MON vort_a_sd                    =   7.1297555115696E-06
(PID.TID 0000.0001) %MON vort_p_mean                  =   8.3303658536584E-05
(PID.TID 0000.0001) %MON vort_p_sd                    =   1.7411470229396E-05
(PID.TID 0000.0001) %MON surfExpan_theta_mean         =  -2.8123079691148E-27
(PID.TID 0000.0001) %MON surfExpan_salt_mean          =  -4.2143783047607E-27
(PID.TID 0000.0001) // =======================================================
(PID.TID 0000.0001) // End MONITOR dynamic field statistics
(PID.TID 0000.0001) // =======================================================
 cg2d: Sum(rhs),rhsMax =  -1.86186046504709E-02  2.18491691826869E-10
 cg2d: Sum(rhs),rhsMax =  -1.86505033509742E-02  2.18117995458222E-10
 cg2d: Sum(rhs),rhsMax =  -1.86854429192903E-02  2.17710139185041E-10
 cg2d: Sum(rhs),rhsMax =  -1.87234483836655E-02  2.17268222863103E-10
 cg2d: Sum(rhs),rhsMax =  -1.87645471922634E-02  2.16792352755404E-10
 cg2d: Sum(rhs),rhsMax =  -1.88087693206567E-02  2.16282641506234E-10
 cg2d: Sum(rhs),rhsMax =  -1.88561473180985E-02  2.15739208114500E-10
 cg2d: Sum(rhs),rhsMax =  -1.89067163701979E-02  2.15162177905505E-10
 cg2d: Sum(rhs),rhsMax =  -1.89605143220819E-02  2.14551682501249E-10
 cg2d: Sum(rhs),rhsMax =  -1.90175818333388E-02  2.13907859789809E-10
 cg2d: Sum(rhs),rhsMax =  -1.90779623883148E-02  2.13230853893105E-10
 cg2d: Sum(rhs),rhsMax =  -1.91417023699297E-02  2.12520815133753E-10
 cg2d: Sum(rhs),rhsMax =  -1.92088512169409E-02  2.11777900000562E-10
 cg2d: Sum(rhs),rhsMax =  -1.92794614615950E-02  2.11002271112426E-10
 cg2d: Sum(rhs),rhsMax =  -1.93535888515927E-02  2.10194097181537E-10
 cg2d: Sum(rhs),rhsMax =  -1.94312924705071E-02  2.09353552974798E-10
(PID.TID 0000.0001)      cg2d_init_res =   3.39047180828202E-01
(PID.TID 0000.0001)      cg2d_iters(min,last) =      -1     548
(PID.TID 0000.0001)      cg2d_last_res =   9.62978991139832E-08
(PID.TID 0000.0001) // =======================================================
(PID.TID 0000.0001) // Begin MONITOR dynamic field statistics
(PID.TID 0000.0001) // =======================================================
(PID.TID 0000.0001) %MON time_tsnumber                =                  4720
(PID.TID 0000.0001) %MON time_secondsf                =   2.5488000000000E+07
(PID.TID 0000.0001) %MON dynstat_eta_max              =   1.9341210267303E-09
(PID.TID 0000.0001) %MON dynstat_eta_min              =  -2.4209422222197E-09
(PID.TID 0000.0001) %MON dynstat_eta_mean             =   3.9203904604550E-13
(PID.TID 0000.0001) %MON dynstat_eta_sd               =   1.1134016795426E-09
(PID.TID 0000.0001) %MON dynstat_eta_del2             =   7.9611464996600E-15
(PID.TID 0000.0001) %MON dynstat_uvel_max             =   1.3219283487669E-09
(PID.TID 0000.0001) %MON dynstat_uvel_min             =  -1.2133353951387E-09
(PID.TID 0000.0001) %MON dynstat_uvel_mean            =   1.0072789746355E-13
(PID.TID 0000.0001) %MON dynstat_uvel_sd              =   4.6613204319772E-10
(PID.TID 0000.0001) %MON dynstat_uvel_del2            =   2.9929841308426E-14
(PID.TID 0000.0001) %MON dynstat_vvel_max             =   1.5253874672500E-09
(PID.TID 0000.0001) %MON dynstat_vvel_min             =  -1.8263236221463E-09
(PID.TID 0000.0001) %MON dynstat_vvel_mean            =  -1.2358962039680E-14
(PID.TID 0000.0001) %MON dynstat_vvel_sd              =   7.1079059775925E-10
(PID.TID 0000.0001) %MON dynstat_vvel_del2            =   5.3247337283750E-14
(PID.TID 0000.0001) %MON dynstat_wvel_max             =   6.5585696776282E-15
(PID.TID 0000.0001) %MON dynstat_wvel_min             =  -4.5590650973870E-15
(PID.TID 0000.0001) %MON dynstat_wvel_mean            =   2.8645947894669E-28
(PID.TID 0000.0001) %MON dynstat_wvel_sd              =   2.7959056317399E-15
(PID.TID 0000.0001) %MON dynstat_wvel_del2            =   1.7895475803277E-20
(PID.TID 0000.0001) %MON dynstat_theta_max            =   2.0000000000000E+01
(PID.TID 0000.0001) %MON dynstat_theta_min            =   2.0000000000000E+01
(PID.TID 0000.0001) %MON dynstat_theta_mean           =   2.0000000000000E+01
(PID.TID 0000.0001) %MON dynstat_theta_sd             =   0.0000000000000E+00
(PID.TID 0000.0001) %MON dynstat_theta_del2           =   0.0000000000000E+00
(PID.TID 0000.0001) %MON dynstat_salt_max             =   3.0000000000000E+01
(PID.TID 0000.0001) %MON dynstat_salt_min             =   3.0000000000000E+01
(PID.TID 0000.0001) %MON dynstat_salt_mean            =   3.0000000000000E+01
(PID.TID 0000.0001) %MON dynstat_salt_sd              =   0.0000000000000E+00
(PID.TID 0000.0001) %MON dynstat_salt_del2            =   0.0000000000000E+00
(PID.TID 0000.0001) %MON trAdv_CFL_u_max              =   1.4276277824085E-09
(PID.TID 0000.0001) %MON trAdv_CFL_v_max              =   1.9682473013711E-09
(PID.TID 0000.0001) %MON trAdv_CFL_w_max              =   7.0819368224728E-15
(PID.TID 0000.0001) %MON advcfl_uvel_max              =   1.4276826166682E-09
(PID.TID 0000.0001) %MON advcfl_vvel_max              =   1.9724295119180E-09
(PID.TID 0000.0001) %MON advcfl_wvel_max              =   1.4166510503677E-14
(PID.TID 0000.0001) %MON advcfl_W_hf_max              =   0.0000000000000E+00
(PID.TID 0000.0001) %MON pe_b_mean                    =   1.2161098480826E-21
(PID.TID 0000.0001) %MON ke_max                       =   1.6676297803271E-18
(PID.TID 0000.0001) %MON ke_mean                      =   3.5978268218514E-19
(PID.TID 0000.0001) %MON ke_vol                       =   7.5645000000000E+15
(PID.TID 0000.0001) %MON vort_r_min                   =  -6.7794335929069E-14
(PID.TID 0000.0001) %MON vort_r_max                   =   9.5840051939097E-14
(PID.TID 0000.0001) %MON vort_a_mean                  =   8.2300000000000E-05
(PID.TID 0000.0001) %MON vort_a_sd                    =   7.1297555115619E-06
(PID.TID 0000.0001) %MON vort_p_mean                  =   8.3303658536585E-05
(PID.TID 0000.0001) %MON vort_p_sd                    =   1.7411470229420E-05
(PID.TID 0000.0001) %MON surfExpan_theta_mean         =   5.7213293640066E-27
(PID.TID 0000.0001) %MON surfExpan_salt_mean          =   8.5767849809420E-27
(PID.TID 0000.0001) // =======================================================
(PID.TID 0000.0001) // End MONITOR dynamic field statistics
(PID.TID 0000.0001) // =======================================================
 cg2d: Sum(rhs),rhsMax =  -1.95126348574804E-02  2.08480819274190E-10
 cg2d: Sum(rhs),rhsMax =  -1.95976821077409E-02  2.07576082836247E-10
 cg2d: Sum(rhs),rhsMax =  -1.96865040472005E-02  2.06639536349891E-10
 cg2d: Sum(rhs),rhsMax =  -1.97791743516024E-02  2.05671378393559E-10
 cg2d: Sum(rhs),rhsMax =  -1.98757707232381E-02  2.04671813390908E-10
 cg2d: Sum(rhs),rhsMax =  -1.99763750433081E-02  2.03641051565114E-10
 cg2d: Sum(rhs),rhsMax =  -2.00810735568701E-02  2.02579308892604E-10
 cg2d: Sum(rhs),rhsMax =  -2.01899570709350E-02  2.01486807138727E-10
 cg2d: Sum(rhs),rhsMax =  -2.03031211621334E-02  2.00363773486885E-10
 cg2d: Sum(rhs),rhsMax =  -2.04206663780134E-02  1.99210440917401E-10
 cg2d: Sum(rhs),rhsMax =  -2.04702555165988E-02  1.98727853347642E-10
 cg2d: Sum(rhs),rhsMax =  -2.02963345737266E-02  2.00430767688488E-10
 cg2d: Sum(rhs),rhsMax =  -2.01283876890195E-02  2.02103117608939E-10
 cg2d: Sum(rhs),rhsMax =  -1.99662106282242E-02  2.03744714681267E-10
 cg2d: Sum(rhs),rhsMax =  -1.98096590369968E-02  2.05354865721374E-10
 cg2d: Sum(rhs),rhsMax =  -1.96585548426877E-02  2.06933311414175E-10
(PID.TID 0000.0001)      cg2d_init_res =   3.34574017991462E-01
(PID.TID 0000.0001)      cg2d_iters(min,last) =      -1     544
(PID.TID 0000.0001)      cg2d_last_res =   9.83532196346020E-08
(PID.TID 0000.0001) // =======================================================
(PID.TID 0000.0001) // Begin MONITOR dynamic field statistics
(PID.TID 0000.0001) // =======================================================
(PID.TID 0000.0001) %MON time_tsnumber                =                  4736
(PID.TID 0000.0001) %MON time_secondsf                =   2.5574400000000E+07
(PID.TID 0000.0001) %MON dynstat_eta_max              =   2.0192545388020E-09
(PID.TID 0000.0001) %MON dynstat_eta_min              =  -2.2795015038055E-09
(PID.TID 0000.0001) %MON dynstat_eta_mean             =   3.9203902003576E-13
(PID.TID 0000.0001) %MON dynstat_eta_sd               =   1.1060736635039E-09
(PID.TID 0000.0001) %MON dynstat_eta_del2             =   8.1057098439628E-15
(PID.TID 0000.0001) %MON dynstat_uvel_max             =   1.3032305699020E-09
(PID.TID 0000.0001) %MON dynstat_uvel_min             =  -1.1499433667385E-09
(PID.TID 0000.0001) %MON dynstat_uvel_mean            =   7.6712165006329E-14
(PID.TID 0000.0001) %MON dynstat_uvel_sd              =   4.3824939655868E-10
(PID.TID 0000.0001) %MON dynstat_uvel_del2            =   3.0237550108862E-14
(PID.TID 0000.0001) %MON dynstat_vvel_max             =   1.3735968942045E-09
(PID.TID 0000.0001) %MON dynstat_vvel_min             =  -1.8717438669865E-09
(PID.TID 0000.0001) %MON dynstat_vvel_mean            =  -1.4652211319979E-14
(PID.TID 0000.0001) %MON dynstat_vvel_sd              =   7.2076344109822E-10
(PID.TID 0000.0001) %MON dynstat_vvel_del2            =   5.2672206601633E-14
(PID.TID 0000.0001) %MON dynstat_wvel_max             =   6.5638361107512E-15
(PID.TID 0000.0001) %MON dynstat_wvel_min             =  -4.1989152529953E-15
(PID.TID 0000.0001) %MON dynstat_wvel_mean            =  -8.8582062216979E-29
(PID.TID 0000.0001) %MON dynstat_wvel_sd              =   2.7769921737939E-15
(PID.TID 0000.0001) %MON dynstat_wvel_del2            =   1.7443584865312E-20
(PID.TID 0000.0001) %MON dynstat_theta_max            =   2.0000000000000E+01
(PID.TID 0000.0001) %MON dynstat_theta_min            =   2.0000000000000E+01
(PID.TID 0000.0001) %MON dynstat_theta_mean           =   2.0000000000000E+01
(PID.TID 0000.0001) %MON dynstat_theta_sd             =   0.0000000000000E+00
(PID.TID 0000.0001) %MON dynstat_theta_del2           =   0.0000000000000E+00
(PID.TID 0000.0001) %MON dynstat_salt_max             =   3.0000000000000E+01
(PID.TID 0000.0001) %MON dynstat_salt_min             =   3.0000000000000E+01
(PID.TID 0000.0001) %MON dynstat_salt_mean            =   3.0000000000000E+01
(PID.TID 0000.0001) %MON dynstat_salt_sd              =   0.0000000000000E+00
(PID.TID 0000.0001) %MON dynstat_salt_del2            =   0.0000000000000E+00
(PID.TID 0000.0001) %MON trAdv_CFL_u_max              =   1.4099140044734E-09
(PID.TID 0000.0001) %MON trAdv_CFL_v_max              =   2.0192486723603E-09
(PID.TID 0000.0001) %MON trAdv_CFL_w_max              =   7.0889333497304E-15
(PID.TID 0000.0001) %MON advcfl_uvel_max              =   1.4074890154941E-09
(PID.TID 0000.0001) %MON advcfl_vvel_max              =   2.0214833763455E-09
(PID.TID 0000.0001) %MON advcfl_wvel_max              =   1.4177885999223E-14
(PID.TID 0000.0001) %MON advcfl_W_hf_max              =   0.0000000000000E+00
(PID.TID 0000.0001) %MON pe_b_mean                    =   1.2001545198385E-21
(PID.TID 0000.0001) %MON ke_max                       =   1.7519114502390E-18
(PID.TID 0000.0001) %MON ke_mean                      =   3.5433497365503E-19
(PID.TID 0000.0001) %MON ke_vol                       =   7.5645000000000E+15
(PID.TID 0000.0001) %MON vort_r_min                   =  -8.2318300089536E-14
(PID.TID 0000.0001) %MON vort_r_max                   =   9.0914882366923E-14
(PID.TID 0000.0001) %MON vort_a_mean                  =   8.2300000000000E-05
(PID.TID 0000.0001) %MON vort_a_sd                    =   7.1297555115654E-06
(PID.TID 0000.0001) %MON vort_p_mean                  =   8.3303658536585E-05
(PID.TID 0000.0001) %MON vort_p_sd                    =   1.7411470229453E-05
(PID.TID 0000.0001) %MON surfExpan_theta_mean         =  -1.7211951353653E-27
(PID.TID 0000.0001) %MON surfExpan_salt_mean          =  -2.5579040112683E-27
(PID.TID 0000.0001) // =======================================================
(PID.TID 0000.0001) // End MONITOR dynamic field statistics
(PID.TID 0000.0001) // =======================================================
 cg2d: Sum(rhs),rhsMax =  -1.95127291114897E-02  2.08479798396960E-10
 cg2d: Sum(rhs),rhsMax =  -1.93720214290707E-02  2.09994079578314E-10
 cg2d: Sum(rhs),rhsMax =  -1.92362795096672E-02  2.11475913760250E-10
 cg2d: Sum(rhs),rhsMax =  -1.91053587093825E-02  2.12925065958338E-10
 cg2d: Sum(rhs),rhsMax =  -1.89791216027934E-02  2.14341307438776E-10
 cg2d: Sum(rhs),rhsMax =  -1.88574376247311E-02  2.15724415769246E-10
 cg2d: Sum(rhs),rhsMax =  -1.87401826820797E-02  2.17074174724655E-10
 cg2d: Sum(rhs),rhsMax =  -1.86272388504137E-02  2.18390374350806E-10
 cg2d: Sum(rhs),rhsMax =  -1.85184940449280E-02  2.19672811101691E-10
 cg2d: Sum(rhs),rhsMax =  -1.84138416974822E-02  2.20921287970471E-10
 cg2d: Sum(rhs),rhsMax =  -1.83131805169332E-02  2.22135614243908E-10
 cg2d: Sum(rhs),rhsMax =  -1.82164142570684E-02  2.23315605617845E-10
 cg2d: Sum(rhs),rhsMax =  -1.81234514285101E-02  2.24461084557043E-10
 cg2d: Sum(rhs),rhsMax =  -1.80342050896986E-02  2.25571879898045E-10
 cg2d: Sum(rhs),rhsMax =  -1.79485926703151E-02  2.26647827085261E-10
 cg2d: Sum(rhs),rhsMax =  -1.78665357280194E-02  2.27688768164262E-10
(PID.TID 0000.0001)      cg2d_init_res =   2.97881548905887E-01
(PID.TID 0000.0001)      cg2d_iters(min,last) =      -1     532
(PID.TID 0000.0001)      cg2d_last_res =   8.91950931378564E-08
(PID.TID 0000.0001) // =======================================================
(PID.TID 0000.0001) // Begin MONITOR dynamic field statistics
(PID.TID 0000.0001) // =======================================================
(PID.TID 0000.0001) %MON time_tsnumber                =                  4752
(PID.TID 0000.0001) %MON time_secondsf                =   2.5660800000000E+07
(PID.TID 0000.0001) %MON dynstat_eta_max              =   2.0782652236179E-09
(PID.TID 0000.0001) %MON dynstat_eta_min              =  -2.3586285080539E-09
(PID.TID 0000.0001) %MON dynstat_eta_mean             =   3.9203898759247E-13
(PID.TID 0000.0001) %MON dynstat_eta_sd               =   1.0965697785619E-09
(PID.TID 0000.0001) %MON dynstat_eta_del2             =   8.2332414806522E-15
(PID.TID 0000.0001) %MON dynstat_uvel_max             =   1.2546267397034E-09
(PID.TID 0000.0001) %MON dynstat_uvel_min             =  -1.0575001352328E-09
(PID.TID 0000.0001) %MON dynstat_uvel_mean            =   4.9036842440584E-14
(PID.TID 0000.0001) %MON dynstat_uvel_sd              =   4.1122878621654E-10
(PID.TID 0000.0001) %MON dynstat_uvel_del2            =   3.1194884898825E-14
(PID.TID 0000.0001) %MON dynstat_vvel_max             =   1.4331521190244E-09
(PID.TID 0000.0001) %MON dynstat_vvel_min             =  -1.9062102756780E-09
(PID.TID 0000.0001) %MON dynstat_vvel_mean            =  -1.6466562730880E-14
(PID.TID 0000.0001) %MON dynstat_vvel_sd              =   7.2889286163086E-10
(PID.TID 0000.0001) %MON dynstat_vvel_del2            =   5.1323729956116E-14
(PID.TID 0000.0001) %MON dynstat_wvel_max             =   6.5521128989054E-15
(PID.TID 0000.0001) %MON dynstat_wvel_min             =  -3.7900309846073E-15
(PID.TID 0000.0001) %MON dynstat_wvel_mean            =   3.0593110928983E-28
(PID.TID 0000.0001) %MON dynstat_wvel_sd              =   2.7622149606169E-15
(PID.TID 0000.0001) %MON dynstat_wvel_del2            =   1.6992386842129E-20
(PID.TID 0000.0001) %MON dynstat_theta_max            =   2.0000000000000E+01
(PID.TID 0000.0001) %MON dynstat_theta_min            =   2.0000000000000E+01
(PID.TID 0000.0001) %MON dynstat_theta_mean           =   2.0000000000000E+01
(PID.TID 0000.0001) %MON dynstat_theta_sd             =   0.0000000000000E+00
(PID.TID 0000.0001) %MON dynstat_theta_del2           =   0.0000000000000E+00
(PID.TID 0000.0001) %MON dynstat_salt_max             =   3.0000000000000E+01
(PID.TID 0000.0001) %MON dynstat_salt_min             =   3.0000000000000E+01
(PID.TID 0000.0001) %MON dynstat_salt_mean            =   3.0000000000000E+01
(PID.TID 0000.0001) %MON dynstat_salt_sd              =   0.0000000000000E+00
(PID.TID 0000.0001) %MON dynstat_salt_del2            =   0.0000000000000E+00
(PID.TID 0000.0001) %MON trAdv_CFL_u_max              =   1.3591255573837E-09
(PID.TID 0000.0001) %MON trAdv_CFL_v_max              =   2.0574845186441E-09
(PID.TID 0000.0001) %MON trAdv_CFL_w_max              =   7.0780979345653E-15
(PID.TID 0000.0001) %MON advcfl_uvel_max              =   1.3549968788797E-09
(PID.TID 0000.0001) %MON advcfl_vvel_max              =   2.0587070977323E-09
(PID.TID 0000.0001) %MON advcfl_wvel_max              =   1.4152563861636E-14
(PID.TID 0000.0001) %MON advcfl_W_hf_max              =   0.0000000000000E+00
(PID.TID 0000.0001) %MON pe_b_mean                    =   1.1796185897238E-21
(PID.TID 0000.0001) %MON ke_max                       =   1.8167988384903E-18
(PID.TID 0000.0001) %MON ke_mean                      =   3.4877339563253E-19
(PID.TID 0000.0001) %MON ke_vol                       =   7.5645000000000E+15
(PID.TID 0000.0001) %MON vort_r_min                   =  -9.3692608971414E-14
(PID.TID 0000.0001) %MON vort_r_max                   =   8.2575063919871E-14
(PID.TID 0000.0001) %MON vort_a_mean                  =   8.2299999999999E-05
(PID.TID 0000.0001) %MON vort_a_sd                    =   7.1297555115757E-06
(PID.TID 0000.0001) %MON vort_p_mean                  =   8.3303658536584E-05
(PID.TID 0000.0001) %MON vort_p_sd                    =   1.7411470229497E-05
(PID.TID 0000.0001) %MON surfExpan_theta_mean         =   6.1691074053093E-27
(PID.TID 0000.0001) %MON surfExpan_salt_mean          =   9.2316155204624E-27
(PID.TID 0000.0001) // =======================================================
(PID.TID 0000.0001) // End MONITOR dynamic field statistics
(PID.TID 0000.0001) // =======================================================
 cg2d: Sum(rhs),rhsMax =  -1.77879598024234E-02  2.28694551812610E-10
 cg2d: Sum(rhs),rhsMax =  -1.77127942349382E-02  2.29665033377931E-10
 cg2d: Sum(rhs),rhsMax =  -1.76409719878074E-02  2.30600074893826E-10
 cg2d: Sum(rhs),rhsMax =  -1.75722037553116E-02  2.31502519445017E-10
 cg2d: Sum(rhs),rhsMax =  -1.75066138398638E-02  2.32369860776465E-10
 cg2d: Sum(rhs),rhsMax =  -1.74441799641354E-02  2.33201526627368E-10
 cg2d: Sum(rhs),rhsMax =  -1.73848481473125E-02  2.33997406483056E-10
 cg2d: Sum(rhs),rhsMax =  -1.73285673626067E-02  2.34757396432856E-10
 cg2d: Sum(rhs),rhsMax =  -1.72752894418681E-02  2.35481399561385E-10
 cg2d: Sum(rhs),rhsMax =  -1.72249690107391E-02  2.36169325574057E-10
 cg2d: Sum(rhs),rhsMax =  -1.71775633310525E-02  2.36821091171193E-10
 cg2d: Sum(rhs),rhsMax =  -1.71330322622561E-02  2.37436619702428E-10
 cg2d: Sum(rhs),rhsMax =  -1.70913382059527E-02  2.38015841358557E-10
 cg2d: Sum(rhs),rhsMax =  -1.70524459198247E-02  2.38558693405361E-10
 cg2d: Sum(rhs),rhsMax =  -1.70163225793430E-02  2.39065119685217E-10
 cg2d: Sum(rhs),rhsMax =  -1.69829376292072E-02  2.39535071065617E-10
(PID.TID 0000.0001)      cg2d_init_res =   2.79419029037303E-01
(PID.TID 0000.0001)      cg2d_iters(min,last) =      -1     540
(PID.TID 0000.0001)      cg2d_last_res =   9.62751329553957E-08
(PID.TID 0000.0001) // =======================================================
(PID.TID 0000.0001) // Begin MONITOR dynamic field statistics
(PID.TID 0000.0001) // =======================================================
(PID.TID 0000.0001) %MON time_tsnumber                =                  4768
(PID.TID 0000.0001) %MON time_secondsf                =   2.5747200000000E+07
(PID.TID 0000.0001) %MON dynstat_eta_max              =   2.1153474723349E-09
(PID.TID 0000.0001) %MON dynstat_eta_min              =  -2.4407316001823E-09
(PID.TID 0000.0001) %MON dynstat_eta_mean             =   3.9203895432663E-13
(PID.TID 0000.0001) %MON dynstat_eta_sd               =   1.0849573632855E-09
(PID.TID 0000.0001) %MON dynstat_eta_del2             =   8.3218296291865E-15
(PID.TID 0000.0001) %MON dynstat_uvel_max             =   1.1778644373442E-09
(PID.TID 0000.0001) %MON dynstat_uvel_min             =  -9.4004331198180E-10
(PID.TID 0000.0001) %MON dynstat_uvel_mean            =   1.9189979624213E-14
(PID.TID 0000.0001) %MON dynstat_uvel_sd              =   3.8956019083451E-10
(PID.TID 0000.0001) %MON dynstat_uvel_del2            =   3.2552170265270E-14
(PID.TID 0000.0001) %MON dynstat_vvel_max             =   1.4945152759898E-09
(PID.TID 0000.0001) %MON dynstat_vvel_min             =  -1.9117988500912E-09
(PID.TID 0000.0001) %MON dynstat_vvel_mean            =  -1.7740099288282E-14
(PID.TID 0000.0001) %MON dynstat_vvel_sd              =   7.3306570589673E-10
(PID.TID 0000.0001) %MON dynstat_vvel_del2            =   4.9340631356397E-14
(PID.TID 0000.0001) %MON dynstat_wvel_max             =   6.5180691771749E-15
(PID.TID 0000.0001) %MON dynstat_wvel_min             =  -3.3404478397281E-15
(PID.TID 0000.0001) %MON dynstat_wvel_mean            =   3.1117505314666E-29
(PID.TID 0000.0001) %MON dynstat_wvel_sd              =   2.7522224622541E-15
(PID.TID 0000.0001) %MON dynstat_wvel_del2            =   1.6630653307245E-20
(PID.TID 0000.0001) %MON dynstat_theta_max            =   2.0000000000000E+01
(PID.TID 0000.0001) %MON dynstat_theta_min            =   2.0000000000000E+01
(PID.TID 0000.0001) %MON dynstat_theta_mean           =   2.0000000000000E+01
(PID.TID 0000.0001) %MON dynstat_theta_sd             =   0.0000000000000E+00
(PID.TID 0000.0001) %MON dynstat_theta_del2           =   0.0000000000000E+00
(PID.TID 0000.0001) %MON dynstat_salt_max             =   3.0000000000000E+01
(PID.TID 0000.0001) %MON dynstat_salt_min             =   3.0000000000000E+01
(PID.TID 0000.0001) %MON dynstat_salt_mean            =   3.0000000000000E+01
(PID.TID 0000.0001) %MON dynstat_salt_sd              =   0.0000000000000E+00
(PID.TID 0000.0001) %MON dynstat_salt_del2            =   0.0000000000000E+00
(PID.TID 0000.0001) %MON trAdv_CFL_u_max              =   1.2780443966343E-09
(PID.TID 0000.0001) %MON trAdv_CFL_v_max              =   2.0661602789608E-09
(PID.TID 0000.0001) %MON trAdv_CFL_w_max              =   7.0428455425597E-15
(PID.TID 0000.0001) %MON advcfl_uvel_max              =   1.2720935923317E-09
(PID.TID 0000.0001) %MON advcfl_vvel_max              =   2.0647427580985E-09
(PID.TID 0000.0001) %MON advcfl_wvel_max              =   1.4079029422698E-14
(PID.TID 0000.0001) %MON advcfl_W_hf_max              =   0.0000000000000E+00
(PID.TID 0000.0001) %MON pe_b_mean                    =   1.1547671137989E-21
(PID.TID 0000.0001) %MON ke_max                       =   1.8273892488013E-18
(PID.TID 0000.0001) %MON ke_mean                      =   3.4317053998237E-19
(PID.TID 0000.0001) %MON ke_vol                       =   7.5645000000000E+15
(PID.TID 0000.0001) %MON vort_r_min                   =  -1.0147386988050E-13
(PID.TID 0000.0001) %MON vort_r_max                   =   7.1278384149615E-14
(PID.TID 0000.0001) %MON vort_a_mean                  =   8.2299999999998E-05
(PID.TID 0000.0001) %MON vort_a_sd                    =   7.1297555115857E-06
(PID.TID 0000.0001) %MON vort_p_mean                  =   8.3303658536583E-05
(PID.TID 0000.0001) %MON vort_p_sd                    =   1.7411470229544E-05
(PID.TID 0000.0001) %MON surfExpan_theta_mean         =   6.5888402523534E-28
(PID.TID 0000.0001) %MON surfExpan_salt_mean          =   9.7232260751107E-28
(PID.TID 0000.0001) // =======================================================
(PID.TID 0000.0001) // End MONITOR dynamic field statistics
(PID.TID 0000.0001) // =======================================================
 cg2d: Sum(rhs),rhsMax =  -1.69520158998755E-02  2.39971999410253E-10
 cg2d: Sum(rhs),rhsMax =  -1.69236614389804E-02  2.40374055105877E-10
 cg2d: Sum(rhs),rhsMax =  -1.68979586358405E-02  2.40739676987486E-10
 cg2d: Sum(rhs),rhsMax =  -1.68748853046384E-02  2.41068843266316E-10
 cg2d: Sum(rhs),rhsMax =  -1.68544212566333E-02  2.41361539255198E-10
 cg2d: Sum(rhs),rhsMax =  -1.68365483101267E-02  2.41617756865609E-10
 cg2d: Sum(rhs),rhsMax =  -1.68212502110841E-02  2.41837495038588E-10
 cg2d: Sum(rhs),rhsMax =  -1.68085126506178E-02  2.42020759385689E-10
 cg2d: Sum(rhs),rhsMax =  -1.67983231755431E-02  2.42167562441620E-10
 cg2d: Sum(rhs),rhsMax =  -1.67906712135659E-02  2.42277923622399E-10
 cg2d: Sum(rhs),rhsMax =  -1.67854871329630E-02  2.42352748321320E-10
 cg2d: Sum(rhs),rhsMax =  -1.67824367159068E-02  2.42396797851269E-10
 cg2d: Sum(rhs),rhsMax =  -1.67818925472526E-02  2.42404656558077E-10
 cg2d: Sum(rhs),rhsMax =  -1.67838509654998E-02  2.42376370646670E-10
 cg2d: Sum(rhs),rhsMax =  -1.67883100332550E-02  2.42311993108518E-10
 cg2d: Sum(rhs),rhsMax =  -1.67952696044527E-02  2.42211583594660E-10
(PID.TID 0000.0001)      cg2d_init_res =   2.75130143036046E-01
(PID.TID 0000.0001)      cg2d_iters(min,last) =      -1     544
(PID.TID 0000.0001)      cg2d_last_res =   9.51188676724566E-08
(PID.TID 0000.0001) // =======================================================
(PID.TID 0000.0001) // Begin MONITOR dynamic field statistics
(PID.TID 0000.0001) // =======================================================
(PID.TID 0000.0001) %MON time_tsnumber                =                  4784
(PID.TID 0000.0001) %MON time_secondsf                =   2.5833600000000E+07
(PID.TID 0000.0001) %MON dynstat_eta_max              =   2.1432976900886E-09
(PID.TID 0000.0001) %MON dynstat_eta_min              =  -2.4698444820707E-09
(PID.TID 0000.0001) %MON dynstat_eta_mean             =   3.9203892339871E-13
(PID.TID 0000.0001) %MON dynstat_eta_sd               =   1.0717038587682E-09
(PID.TID 0000.0001) %MON dynstat_eta_del2             =   8.3553670958449E-15
(PID.TID 0000.0001) %MON dynstat_uvel_max             =   1.0764197149884E-09
(PID.TID 0000.0001) %MON dynstat_uvel_min             =  -9.7206491455250E-10
(PID.TID 0000.0001) %MON dynstat_uvel_mean            =  -1.1240082746526E-14
(PID.TID 0000.0001) %MON dynstat_uvel_sd              =   3.7706494991640E-10
(PID.TID 0000.0001) %MON dynstat_uvel_del2            =   3.4006835954362E-14
(PID.TID 0000.0001) %MON dynstat_vvel_max             =   1.5262017914997E-09
(PID.TID 0000.0001) %MON dynstat_vvel_min             =  -1.8792375607863E-09
(PID.TID 0000.0001) %MON dynstat_vvel_mean            =  -1.8436373753206E-14
(PID.TID 0000.0001) %MON dynstat_vvel_sd              =   7.3198525011503E-10
(PID.TID 0000.0001) %MON dynstat_vvel_del2            =   4.6932319527994E-14
(PID.TID 0000.0001) %MON dynstat_wvel_max             =   6.4545116990056E-15
(PID.TID 0000.0001) %MON dynstat_wvel_min             =  -3.2704125282890E-15
(PID.TID 0000.0001) %MON dynstat_wvel_mean            =   2.8249991585501E-29
(PID.TID 0000.0001) %MON dynstat_wvel_sd              =   2.7463965553618E-15
(PID.TID 0000.0001) %MON dynstat_wvel_del2            =   1.6356135328693E-20
(PID.TID 0000.0001) %MON dynstat_theta_max            =   2.0000000000000E+01
(PID.TID 0000.0001) %MON dynstat_theta_min            =   2.0000000000000E+01
(PID.TID 0000.0001) %MON dynstat_theta_mean           =   2.0000000000000E+01
(PID.TID 0000.0001) %MON dynstat_theta_sd             =   0.0000000000000E+00
(PID.TID 0000.0001) %MON dynstat_theta_del2           =   0.0000000000000E+00
(PID.TID 0000.0001) %MON dynstat_salt_max             =   3.0000000000000E+01
(PID.TID 0000.0001) %MON dynstat_salt_min             =   3.0000000000000E+01
(PID.TID 0000.0001) %MON dynstat_salt_mean            =   3.0000000000000E+01
(PID.TID 0000.0001) %MON dynstat_salt_sd              =   0.0000000000000E+00
(PID.TID 0000.0001) %MON dynstat_salt_del2            =   0.0000000000000E+00
(PID.TID 0000.0001) %MON trAdv_CFL_u_max              =   1.1700268115409E-09
(PID.TID 0000.0001) %MON trAdv_CFL_v_max              =   2.0326744219398E-09
(PID.TID 0000.0001) %MON trAdv_CFL_w_max              =   6.9761528706747E-15
(PID.TID 0000.0001) %MON advcfl_uvel_max              =   1.1625332921875E-09
(PID.TID 0000.0001) %MON advcfl_vvel_max              =   2.0295765656492E-09
(PID.TID 0000.0001) %MON advcfl_wvel_max              =   1.3941745269852E-14
(PID.TID 0000.0001) %MON advcfl_W_hf_max              =   0.0000000000000E+00
(PID.TID 0000.0001) %MON pe_b_mean                    =   1.1267268776160E-21
(PID.TID 0000.0001) %MON ke_max                       =   1.7656706171677E-18
(PID.TID 0000.0001) %MON ke_mean                      =   3.3761218274466E-19
(PID.TID 0000.0001) %MON ke_vol                       =   7.5645000000000E+15
(PID.TID 0000.0001) %MON vort_r_min                   =  -1.0540886789680E-13
(PID.TID 0000.0001) %MON vort_r_max                   =   6.0931430865086E-14
(PID.TID 0000.0001) %MON vort_a_mean                  =   8.2300000000001E-05
(PID.TID 0000.0001) %MON vort_a_sd                    =   7.1297555115480E-06
(PID.TID 0000.0001) %MON vort_p_mean                  =   8.3303658536586E-05
(PID.TID 0000.0001) %MON vort_p_sd                    =   1.7411470229574E-05
(PID.TID 0000.0001) %MON surfExpan_theta_mean         =   5.5831055011274E-28
(PID.TID 0000.0001) %MON surfExpan_salt_mean          =   8.4312726820080E-28
(PID.TID 0000.0001) // =======================================================
(PID.TID 0000.0001) // End MONITOR dynamic field statistics
(PID.TID 0000.0001) // =======================================================
 cg2d: Sum(rhs),rhsMax =  -1.68047312818922E-02  2.42075208486271E-10
 cg2d: Sum(rhs),rhsMax =  -1.68166984500367E-02  2.41902940846902E-10
 cg2d: Sum(rhs),rhsMax =  -1.68311762400547E-02  2.41694860411351E-10
 cg2d: Sum(rhs),rhsMax =  -1.68481586534358E-02  2.41451238557474E-10
 cg2d: Sum(rhs),rhsMax =  -1.68671393576082E-02  2.41179530858760E-10
 cg2d: Sum(rhs),rhsMax =  -1.68886431397984E-02  2.40872443442317E-10
 cg2d: Sum(rhs),rhsMax =  -1.69126817368686E-02  2.40530081829141E-10
 cg2d: Sum(rhs),rhsMax =  -1.69392686767428E-02  2.40152558057845E-10
 cg2d: Sum(rhs),rhsMax =  -1.69684193173872E-02  2.39739990632291E-10
 cg2d: Sum(rhs),rhsMax =  -1.70001508329937E-02  2.39292504612383E-10
 cg2d: Sum(rhs),rhsMax =  -1.70344822933098E-02  2.38810231347525E-10
 cg2d: Sum(rhs),rhsMax =  -1.70714346314585E-02  2.38293308720613E-10
 cg2d: Sum(rhs),rhsMax =  -1.71104755177218E-02  2.37749595283521E-10
 cg2d: Sum(rhs),rhsMax =  -1.71520843065704E-02  2.37172843993151E-10
 cg2d: Sum(rhs),rhsMax =  -1.71963704212405E-02  2.36562047758675E-10
 cg2d: Sum(rhs),rhsMax =  -1.72433619828605E-02  2.35917368674585E-10
(PID.TID 0000.0001)      cg2d_init_res =   2.83661686128857E-01
(PID.TID 0000.0001)      cg2d_iters(min,last) =      -1     546
(PID.TID 0000.0001)      cg2d_last_res =   9.61407621083068E-08
(PID.TID 0000.0001) // =======================================================
(PID.TID 0000.0001) // Begin MONITOR dynamic field statistics
(PID.TID 0000.0001) // =======================================================
(PID.TID 0000.0001) %MON time_tsnumber                =                  4800
(PID.TID 0000.0001) %MON time_secondsf                =   2.5920000000000E+07
(PID.TID 0000.0001) %MON dynstat_eta_max              =   2.1763721786118E-09
(PID.TID 0000.0001) %MON dynstat_eta_min              =  -2.4457077907160E-09
(PID.TID 0000.0001) %MON dynstat_eta_mean             =   3.9203889831099E-13
(PID.TID 0000.0001) %MON dynstat_eta_sd               =   1.0576427069997E-09
(PID.TID 0000.0001) %MON dynstat_eta_del2             =   8.3248771424499E-15
(PID.TID 0000.0001) %MON dynstat_uvel_max             =   1.0719843262157E-09
(PID.TID 0000.0001) %MON dynstat_uvel_min             =  -1.0016703808771E-09
(PID.TID 0000.0001) %MON dynstat_uvel_mean            =  -4.0651005115691E-14
(PID.TID 0000.0001) %MON dynstat_uvel_sd              =   3.7552411296363E-10
(PID.TID 0000.0001) %MON dynstat_uvel_del2            =   3.5281673801529E-14
(PID.TID 0000.0001) %MON dynstat_vvel_max             =   1.5279089810912E-09
(PID.TID 0000.0001) %MON dynstat_vvel_min             =  -1.8527065286004E-09
(PID.TID 0000.0001) %MON dynstat_vvel_mean            =  -1.8545826304282E-14
(PID.TID 0000.0001) %MON dynstat_vvel_sd              =   7.2530283044110E-10
(PID.TID 0000.0001) %MON dynstat_vvel_del2            =   4.4365534066331E-14
(PID.TID 0000.0001) %MON dynstat_wvel_max             =   6.3596322301407E-15
(PID.TID 0000.0001) %MON dynstat_wvel_min             =  -3.5684286328608E-15
(PID.TID 0000.0001) %MON dynstat_wvel_mean            =  -1.5359475595724E-28
(PID.TID 0000.0001) %MON dynstat_wvel_sd              =   2.7429405429795E-15
(PID.TID 0000.0001) %MON dynstat_wvel_del2            =   1.6226209267504E-20
(PID.TID 0000.0001) %MON dynstat_theta_max            =   2.0000000000000E+01
(PID.TID 0000.0001) %MON dynstat_theta_min            =   2.0000000000000E+01
(PID.TID 0000.0001) %MON dynstat_theta_mean           =   2.0000000000000E+01
(PID.TID 0000.0001) %MON dynstat_theta_sd             =   0.0000000000000E+00
(PID.TID 0000.0001) %MON dynstat_theta_del2           =   0.0000000000000E+00
(PID.TID 0000.0001) %MON dynstat_salt_max             =   3.0000000000000E+01
(PID.TID 0000.0001) %MON dynstat_salt_min             =   3.0000000000000E+01
(PID.TID 0000.0001) %MON dynstat_salt_mean            =   3.0000000000000E+01
(PID.TID 0000.0001) %MON dynstat_salt_sd              =   0.0000000000000E+00
(PID.TID 0000.0001) %MON dynstat_salt_del2            =   0.0000000000000E+00
(PID.TID 0000.0001) %MON trAdv_CFL_u_max              =   1.1463263740742E-09
(PID.TID 0000.0001) %MON trAdv_CFL_v_max              =   1.9975506676501E-09
(PID.TID 0000.0001) %MON trAdv_CFL_w_max              =   6.8759153351028E-15
(PID.TID 0000.0001) %MON advcfl_uvel_max              =   1.1577430723130E-09
(PID.TID 0000.0001) %MON advcfl_vvel_max              =   2.0009230508884E-09
(PID.TID 0000.0001) %MON advcfl_wvel_max              =   1.3736805617104E-14
(PID.TID 0000.0001) %MON advcfl_W_hf_max              =   0.0000000000000E+00
(PID.TID 0000.0001) %MON pe_b_mean                    =   1.0973546926263E-21
(PID.TID 0000.0001) %MON ke_max                       =   1.7160431643578E-18
(PID.TID 0000.0001) %MON ke_mean                      =   3.3218541977350E-19
(PID.TID 0000.0001) %MON ke_vol                       =   7.5645000000000E+15
(PID.TID 0000.0001) %MON vort_r_min                   =  -1.0544229183444E-13
(PID.TID 0000.0001) %MON vort_r_max                   =   6.8802045386288E-14
(PID.TID 0000.0001) %MON vort_a_mean                  =   8.2300000000001E-05
(PID.TID 0000.0001) %MON vort_a_sd                    =   7.1297555115429E-06
(PID.TID 0000.0001) %MON vort_p_mean                  =   8.3303658536587E-05
(PID.TID 0000.0001) %MON vort_p_sd                    =   1.7411470229617E-05
(PID.TID 0000.0001) %MON surfExpan_theta_mean         =  -3.0713888320606E-27
(PID.TID 0000.0001) %MON surfExpan_salt_mean          =  -4.6320603343774E-27
(PID.TID 0000.0001) // =======================================================
(PID.TID 0000.0001) // End MONITOR dynamic field statistics
(PID.TID 0000.0001) // =======================================================
(PID.TID 0000.0001) %CHECKPOINT      4800 ckptA
 cg2d: Sum(rhs),rhsMax =  -1.72930891559283E-02  2.35238975029821E-10
 cg2d: Sum(rhs),rhsMax =  -1.73455842385670E-02  2.34527041268840E-10
 cg2d: Sum(rhs),rhsMax =  -1.74008816752607E-02  2.33781747952153E-10
 cg2d: Sum(rhs),rhsMax =  -1.74587122528232E-02  2.33007363859465E-10
 cg2d: Sum(rhs),rhsMax =  -1.75189660620547E-02  2.32205969832852E-10
 cg2d: Sum(rhs),rhsMax =  -1.75821164653457E-02  2.31371945201317E-10
 cg2d: Sum(rhs),rhsMax =  -1.76482061819876E-02  2.30505493329590E-10
 cg2d: Sum(rhs),rhsMax =  -1.77172803308959E-02  2.29606823439596E-10
 cg2d: Sum(rhs),rhsMax =  -1.77893865752986E-02  2.28676150518656E-10
 cg2d: Sum(rhs),rhsMax =  -1.78645751619637E-02  2.27713695371996E-10
 cg2d: Sum(rhs),rhsMax =  -1.79424705373852E-02  2.26725099089254E-10
 cg2d: Sum(rhs),rhsMax =  -1.80230960960100E-02  2.25710853090901E-10
 cg2d: Sum(rhs),rhsMax =  -1.81069426724220E-02  2.24665668487775E-10
 cg2d: Sum(rhs),rhsMax =  -1.81940705600871E-02  2.23589787094750E-10
 cg2d: Sum(rhs),rhsMax =  -1.82845431099359E-02  2.22483456230885E-10
 cg2d: Sum(rhs),rhsMax =  -1.83784268198529E-02  2.21346928621086E-10
(PID.TID 0000.0001)      cg2d_init_res =   3.05559127018043E-01
(PID.TID 0000.0001)      cg2d_iters(min,last) =      -1     548
(PID.TID 0000.0001)      cg2d_last_res =   9.74630674685599E-08
(PID.TID 0000.0001) // =======================================================
(PID.TID 0000.0001) // Begin MONITOR dynamic field statistics
(PID.TID 0000.0001) // =======================================================
(PID.TID 0000.0001) %MON time_tsnumber                =                  4816
(PID.TID 0000.0001) %MON time_secondsf                =   2.6006400000000E+07
(PID.TID 0000.0001) %MON dynstat_eta_max              =   2.2065331427863E-09
(PID.TID 0000.0001) %MON dynstat_eta_min              =  -2.3720144911776E-09
(PID.TID 0000.0001) %MON dynstat_eta_mean             =   3.9203887381647E-13
(PID.TID 0000.0001) %MON dynstat_eta_sd               =   1.0438534170713E-09
(PID.TID 0000.0001) %MON dynstat_eta_del2             =   8.2290215536563E-15
(PID.TID 0000.0001) %MON dynstat_uvel_max             =   1.2331023605957E-09
(PID.TID 0000.0001) %MON dynstat_uvel_min             =  -1.0120541684915E-09
(PID.TID 0000.0001) %MON dynstat_uvel_mean            =  -6.7512846526827E-14
(PID.TID 0000.0001) %MON dynstat_uvel_sd              =   3.8385630088364E-10
(PID.TID 0000.0001) %MON dynstat_uvel_del2            =   3.6167687117045E-14
(PID.TID 0000.0001) %MON dynstat_vvel_max             =   1.5008767644903E-09
(PID.TID 0000.0001) %MON dynstat_vvel_min             =  -1.8679024803387E-09
(PID.TID 0000.0001) %MON dynstat_vvel_mean            =  -1.8085747831895E-14
(PID.TID 0000.0001) %MON dynstat_vvel_sd              =   7.1362267810182E-10
(PID.TID 0000.0001) %MON dynstat_vvel_del2            =   4.1939237393169E-14
(PID.TID 0000.0001) %MON dynstat_wvel_max             =   6.2485994076211E-15
(PID.TID 0000.0001) %MON dynstat_wvel_min             =  -3.8599579303689E-15
(PID.TID 0000.0001) %MON dynstat_wvel_mean            =  -1.9505075855336E-29
(PID.TID 0000.0001) %MON dynstat_wvel_sd              =   2.7392526139759E-15
(PID.TID 0000.0001) %MON dynstat_wvel_del2            =   1.6236076986745E-20
(PID.TID 0000.0001) %MON dynstat_theta_max            =   2.0000000000000E+01
(PID.TID 0000.0001) %MON dynstat_theta_min            =   2.0000000000000E+01
(PID.TID 0000.0001) %MON dynstat_theta_mean           =   2.0000000000000E+01
(PID.TID 0000.0001) %MON dynstat_theta_sd             =   0.0000000000000E+00
(PID.TID 0000.0001) %MON dynstat_theta_del2           =   0.0000000000000E+00
(PID.TID 0000.0001) %MON dynstat_salt_max             =   3.0000000000000E+01
(PID.TID 0000.0001) %MON dynstat_salt_min             =   3.0000000000000E+01
(PID.TID 0000.0001) %MON dynstat_salt_mean            =   3.0000000000000E+01
(PID.TID 0000.0001) %MON dynstat_salt_sd              =   0.0000000000000E+00
(PID.TID 0000.0001) %MON dynstat_salt_del2            =   0.0000000000000E+00
(PID.TID 0000.0001) %MON trAdv_CFL_u_max              =   1.3213900784042E-09
(PID.TID 0000.0001) %MON trAdv_CFL_v_max              =   2.0183558291272E-09
(PID.TID 0000.0001) %MON trAdv_CFL_w_max              =   6.7559118716365E-15
(PID.TID 0000.0001) %MON advcfl_uvel_max              =   1.3317505494433E-09
(PID.TID 0000.0001) %MON advcfl_vvel_max              =   2.0173346787658E-09
(PID.TID 0000.0001) %MON advcfl_wvel_max              =   1.3496974720462E-14
(PID.TID 0000.0001) %MON advcfl_W_hf_max              =   0.0000000000000E+00
(PID.TID 0000.0001) %MON pe_b_mean                    =   1.0689271379354E-21
(PID.TID 0000.0001) %MON ke_max                       =   1.7442535681839E-18
(PID.TID 0000.0001) %MON ke_mean                      =   3.2696693673174E-19
(PID.TID 0000.0001) %MON ke_vol                       =   7.5645000000000E+15
(PID.TID 0000.0001) %MON vort_r_min                   =  -1.0171924066844E-13
(PID.TID 0000.0001) %MON vort_r_max                   =   7.5619317564907E-14
(PID.TID 0000.0001) %MON vort_a_mean                  =   8.2300000000000E-05
(PID.TID 0000.0001) %MON vort_a_sd                    =   7.1297555115562E-06
(PID.TID 0000.0001) %MON vort_p_mean                  =   8.3303658536586E-05
(PID.TID 0000.0001) %MON vort_p_sd                    =   1.7411470229667E-05
(PID.TID 0000.0001) %MON surfExpan_theta_mean         =  -3.9536168408833E-28
(PID.TID 0000.0001) %MON surfExpan_salt_mean          =  -6.0994168443826E-28
(PID.TID 0000.0001) // =======================================================
(PID.TID 0000.0001) // End MONITOR dynamic field statistics
(PID.TID 0000.0001) // =======================================================
 cg2d: Sum(rhs),rhsMax =  -1.84757810256115E-02  2.20180587131358E-10
 cg2d: Sum(rhs),rhsMax =  -1.85756834982309E-02  2.18996426115977E-10
 cg2d: Sum(rhs),rhsMax =  -1.86791818240299E-02  2.17783001532406E-10
 cg2d: Sum(rhs),rhsMax =  -1.87766592689111E-02  2.16652398773418E-10
 cg2d: Sum(rhs),rhsMax =  -1.87147039983572E-02  2.17369628713923E-10
 cg2d: Sum(rhs),rhsMax =  -1.86562755064631E-02  2.18050395067294E-10
 cg2d: Sum(rhs),rhsMax =  -1.86013255431917E-02  2.18694534483146E-10
 cg2d: Sum(rhs),rhsMax =  -1.85486539300023E-02  2.19315548897803E-10
 cg2d: Sum(rhs),rhsMax =  -1.84954654268749E-02  2.19946246824594E-10
 cg2d: Sum(rhs),rhsMax =  -1.84456684177935E-02  2.20540025921746E-10
 cg2d: Sum(rhs),rhsMax =  -1.83992225443713E-02  2.21096742912379E-10
 cg2d: Sum(rhs),rhsMax =  -1.83549773760550E-02  2.21629701720831E-10
 cg2d: Sum(rhs),rhsMax =  -1.83101180178889E-02  2.22172688407018E-10
 cg2d: Sum(rhs),rhsMax =  -1.82685377483076E-02  2.22678365778468E-10
 cg2d: Sum(rhs),rhsMax =  -1.82302034629001E-02  2.23146610789009E-10
 cg2d: Sum(rhs),rhsMax =  -1.81939586724543E-02  2.23591147647199E-10
(PID.TID 0000.0001)      cg2d_init_res =   3.06672345664174E-01
(PID.TID 0000.0001)      cg2d_iters(min,last) =      -1     549
(PID.TID 0000.0001)      cg2d_last_res =   9.74861873469927E-08
(PID.TID 0000.0001) // =======================================================
(PID.TID 0000.0001) // Begin MONITOR dynamic field statistics
(PID.TID 0000.0001) // =======================================================
(PID.TID 0000.0001) %MON time_tsnumber                =                  4832
(PID.TID 0000.0001) %MON time_secondsf                =   2.6092800000000E+07
(PID.TID 0000.0001) %MON dynstat_eta_max              =   2.2246757283064E-09
(PID.TID 0000.0001) %MON dynstat_eta_min              =  -2.2523886707240E-09
(PID.TID 0000.0001) %MON dynstat_eta_mean             =   3.9203885160292E-13
(PID.TID 0000.0001) %MON dynstat_eta_sd               =   1.0314681406337E-09
(PID.TID 0000.0001) %MON dynstat_eta_del2             =   8.0739690396582E-15
(PID.TID 0000.0001) %MON dynstat_uvel_max             =   1.3695527868385E-09
(PID.TID 0000.0001) %MON dynstat_uvel_min             =  -9.9795663762836E-10
(PID.TID 0000.0001) %MON dynstat_uvel_mean            =  -9.0449634926587E-14
(PID.TID 0000.0001) %MON dynstat_uvel_sd              =   3.9861866283140E-10
(PID.TID 0000.0001) %MON dynstat_uvel_del2            =   3.6539882107733E-14
(PID.TID 0000.0001) %MON dynstat_vvel_max             =   1.6345914269351E-09
(PID.TID 0000.0001) %MON dynstat_vvel_min             =  -1.8195708753914E-09
(PID.TID 0000.0001) %MON dynstat_vvel_mean            =  -1.7098859395566E-14
(PID.TID 0000.0001) %MON dynstat_vvel_sd              =   6.9839695941959E-10
(PID.TID 0000.0001) %MON dynstat_vvel_del2            =   3.9941174419827E-14
(PID.TID 0000.0001) %MON dynstat_wvel_max             =   6.1606128844149E-15
(PID.TID 0000.0001) %MON dynstat_wvel_min             =  -4.1400844483230E-15
(PID.TID 0000.0001) %MON dynstat_wvel_mean            =   3.6925629885556E-29
(PID.TID 0000.0001) %MON dynstat_wvel_sd              =   2.7324849891136E-15
(PID.TID 0000.0001) %MON dynstat_wvel_del2            =   1.6360887638327E-20
(PID.TID 0000.0001) %MON dynstat_theta_max            =   2.0000000000000E+01
(PID.TID 0000.0001) %MON dynstat_theta_min            =   2.0000000000000E+01
(PID.TID 0000.0001) %MON dynstat_theta_mean           =   2.0000000000000E+01
(PID.TID 0000.0001) %MON dynstat_theta_sd             =   0.0000000000000E+00
(PID.TID 0000.0001) %MON dynstat_theta_del2           =   0.0000000000000E+00
(PID.TID 0000.0001) %MON dynstat_salt_max             =   3.0000000000000E+01
(PID.TID 0000.0001) %MON dynstat_salt_min             =   3.0000000000000E+01
(PID.TID 0000.0001) %MON dynstat_salt_mean            =   3.0000000000000E+01
(PID.TID 0000.0001) %MON dynstat_salt_sd              =   0.0000000000000E+00
(PID.TID 0000.0001) %MON dynstat_salt_del2            =   0.0000000000000E+00
(PID.TID 0000.0001) %MON trAdv_CFL_u_max              =   1.4708916538602E-09
(PID.TID 0000.0001) %MON trAdv_CFL_v_max              =   1.9703448054705E-09
(PID.TID 0000.0001) %MON trAdv_CFL_w_max              =   6.6573551287696E-15
(PID.TID 0000.0001) %MON advcfl_uvel_max              =   1.4791170097856E-09
(PID.TID 0000.0001) %MON advcfl_vvel_max              =   1.9651365454227E-09
(PID.TID 0000.0001) %MON advcfl_wvel_max              =   1.3306923830336E-14
(PID.TID 0000.0001) %MON advcfl_W_hf_max              =   0.0000000000000E+00
(PID.TID 0000.0001) %MON pe_b_mean                    =   1.0437120719389E-21
(PID.TID 0000.0001) %MON ke_max                       =   1.6554015649029E-18
(PID.TID 0000.0001) %MON ke_mean                      =   3.2201324012316E-19
(PID.TID 0000.0001) %MON ke_vol                       =   7.5645000000000E+15
(PID.TID 0000.0001) %MON vort_r_min                   =  -9.4579460963258E-14
(PID.TID 0000.0001) %MON vort_r_max                   =   8.0568341821286E-14
(PID.TID 0000.0001) %MON vort_a_mean                  =   8.2300000000001E-05
(PID.TID 0000.0001) %MON vort_a_sd                    =   7.1297555115472E-06
(PID.TID 0000.0001) %MON vort_p_mean                  =   8.3303658536586E-05
(PID.TID 0000.0001) %MON vort_p_sd                    =   1.7411470229704E-05
(PID.TID 0000.0001) %MON surfExpan_theta_mean         =   7.9887261007219E-28
(PID.TID 0000.0001) %MON surfExpan_salt_mean          =   1.1551908006263E-27
(PID.TID 0000.0001) // =======================================================
(PID.TID 0000.0001) // End MONITOR dynamic field statistics
(PID.TID 0000.0001) // =======================================================
 cg2d: Sum(rhs),rhsMax =  -1.81570674572079E-02  2.24045435381101E-10
 cg2d: Sum(rhs),rhsMax =  -1.81233636900210E-02  2.24462088600169E-10
 cg2d: Sum(rhs),rhsMax =  -1.80928209997622E-02  2.24841004632402E-10
 cg2d: Sum(rhs),rhsMax =  -1.80642169150236E-02  2.25197031856855E-10
 cg2d: Sum(rhs),rhsMax =  -1.80350021538474E-02  2.25561825927732E-10
 cg2d: Sum(rhs),rhsMax =  -1.80089023121585E-02  2.25888725967792E-10
 cg2d: Sum(rhs),rhsMax =  -1.79858972996652E-02  2.26177649945442E-10
 cg2d: Sum(rhs),rhsMax =  -1.79646336110984E-02  2.26445362514871E-10
 cg2d: Sum(rhs),rhsMax =  -1.79428671402062E-02  2.26720062227539E-10
 cg2d: Sum(rhs),rhsMax =  -1.79241608541707E-02  2.26956674312886E-10
 cg2d: Sum(rhs),rhsMax =  -1.79085006485757E-02  2.27155137117244E-10
 cg2d: Sum(rhs),rhsMax =  -1.78943305038951E-02  2.27335015554277E-10
 cg2d: Sum(rhs),rhsMax =  -1.78798432053531E-02  2.27519214767906E-10
 cg2d: Sum(rhs),rhsMax =  -1.78683781786470E-02  2.27665198775625E-10
 cg2d: Sum(rhs),rhsMax =  -1.78599270552229E-02  2.27772926477828E-10
 cg2d: Sum(rhs),rhsMax =  -1.78526524514045E-02  2.27865738575425E-10
(PID.TID 0000.0001)      cg2d_init_res =   3.04947552465330E-01
(PID.TID 0000.0001)      cg2d_iters(min,last) =      -1     550
(PID.TID 0000.0001)      cg2d_last_res =   9.08908363853926E-08
(PID.TID 0000.0001) // =======================================================
(PID.TID 0000.0001) // Begin MONITOR dynamic field statistics
(PID.TID 0000.0001) // =======================================================
(PID.TID 0000.0001) %MON time_tsnumber                =                  4848
(PID.TID 0000.0001) %MON time_secondsf                =   2.6179200000000E+07
(PID.TID 0000.0001) %MON dynstat_eta_max              =   2.2329461573583E-09
(PID.TID 0000.0001) %MON dynstat_eta_min              =  -2.0930623011793E-09
(PID.TID 0000.0001) %MON dynstat_eta_mean             =   3.9203882594836E-13
(PID.TID 0000.0001) %MON dynstat_eta_sd               =   1.0214372523237E-09
(PID.TID 0000.0001) %MON dynstat_eta_del2             =   7.8726941458652E-15
(PID.TID 0000.0001) %MON dynstat_uvel_max             =   1.4776640047418E-09
(PID.TID 0000.0001) %MON dynstat_uvel_min             =  -9.6140393949783E-10
(PID.TID 0000.0001) %MON dynstat_uvel_mean            =  -1.0831169651832E-13
(PID.TID 0000.0001) %MON dynstat_uvel_sd              =   4.1541742177787E-10
(PID.TID 0000.0001) %MON dynstat_uvel_del2            =   3.6359344893418E-14
(PID.TID 0000.0001) %MON dynstat_vvel_max             =   1.7640742411864E-09
(PID.TID 0000.0001) %MON dynstat_vvel_min             =  -1.7129893305089E-09
(PID.TID 0000.0001) %MON dynstat_vvel_mean            =  -1.5650570724404E-14
(PID.TID 0000.0001) %MON dynstat_vvel_sd              =   6.8170932512658E-10
(PID.TID 0000.0001) %MON dynstat_vvel_del2            =   3.8585976221370E-14
(PID.TID 0000.0001) %MON dynstat_wvel_max             =   6.1377712544386E-15
(PID.TID 0000.0001) %MON dynstat_wvel_min             =  -4.4096011408978E-15
(PID.TID 0000.0001) %MON dynstat_wvel_mean            =   2.4561117134576E-29
(PID.TID 0000.0001) %MON dynstat_wvel_sd              =   2.7201525847037E-15
(PID.TID 0000.0001) %MON dynstat_wvel_del2            =   1.6551695059040E-20
(PID.TID 0000.0001) %MON dynstat_theta_max            =   2.0000000000000E+01
(PID.TID 0000.0001) %MON dynstat_theta_min            =   2.0000000000000E+01
(PID.TID 0000.0001) %MON dynstat_theta_mean           =   2.0000000000000E+01
(PID.TID 0000.0001) %MON dynstat_theta_sd             =   0.0000000000000E+00
(PID.TID 0000.0001) %MON dynstat_theta_del2           =   0.0000000000000E+00
(PID.TID 0000.0001) %MON dynstat_salt_max             =   3.0000000000000E+01
(PID.TID 0000.0001) %MON dynstat_salt_min             =   3.0000000000000E+01
(PID.TID 0000.0001) %MON dynstat_salt_mean            =   3.0000000000000E+01
(PID.TID 0000.0001) %MON dynstat_salt_sd              =   0.0000000000000E+00
(PID.TID 0000.0001) %MON dynstat_salt_del2            =   0.0000000000000E+00
(PID.TID 0000.0001) %MON trAdv_CFL_u_max              =   1.5894480646591E-09
(PID.TID 0000.0001) %MON trAdv_CFL_v_max              =   1.8970337773100E-09
(PID.TID 0000.0001) %MON trAdv_CFL_w_max              =   6.6288472152898E-15
(PID.TID 0000.0001) %MON advcfl_uvel_max              =   1.5958771251211E-09
(PID.TID 0000.0001) %MON advcfl_vvel_max              =   1.9052001804813E-09
(PID.TID 0000.0001) %MON advcfl_wvel_max              =   1.3257585909587E-14
(PID.TID 0000.0001) %MON advcfl_W_hf_max              =   0.0000000000000E+00
(PID.TID 0000.0001) %MON pe_b_mean                    =   1.0235108640605E-21
(PID.TID 0000.0001) %MON ke_max                       =   1.5559734516482E-18
(PID.TID 0000.0001) %MON ke_mean                      =   3.1735430144935E-19
(PID.TID 0000.0001) %MON ke_vol                       =   7.5645000000000E+15
(PID.TID 0000.0001) %MON vort_r_min                   =  -8.4532093346849E-14
(PID.TID 0000.0001) %MON vort_r_max                   =   8.3490965779010E-14
(PID.TID 0000.0001) %MON vort_a_mean                  =   8.2300000000000E-05
(PID.TID 0000.0001) %MON vort_a_sd                    =   7.1297555115512E-06
(PID.TID 0000.0001) %MON vort_p_mean                  =   8.3303658536586E-05
(PID.TID 0000.0001) %MON vort_p_sd                    =   1.7411470229743E-05
(PID.TID 0000.0001) %MON surfExpan_theta_mean         =   5.2567719073895E-28
(PID.TID 0000.0001) %MON surfExpan_salt_mean          =   8.0977671059484E-28
(PID.TID 0000.0001) // =======================================================
(PID.TID 0000.0001) // End MONITOR dynamic field statistics
(PID.TID 0000.0001) // =======================================================
 cg2d: Sum(rhs),rhsMax =  -1.78453309102636E-02  2.27959225735969E-10
 cg2d: Sum(rhs),rhsMax =  -1.78410098510740E-02  2.28014436046068E-10
 cg2d: Sum(rhs),rhsMax =  -1.78396865195774E-02  2.28031348938093E-10
 cg2d: Sum(rhs),rhsMax =  -1.78391543561135E-02  2.28038150385124E-10
 cg2d: Sum(rhs),rhsMax =  -1.78389385438068E-02  2.28040908064222E-10
 cg2d: Sum(rhs),rhsMax =  -1.78417171187164E-02  2.28005392958030E-10
 cg2d: Sum(rhs),rhsMax =  -1.78474929130737E-02  2.27931604961032E-10
 cg2d: Sum(rhs),rhsMax =  -1.78535919806306E-02  2.27853738814443E-10
 cg2d: Sum(rhs),rhsMax =  -1.78604738465668E-02  2.27765942776392E-10
 cg2d: Sum(rhs),rhsMax =  -1.78703595842947E-02  2.27639943343892E-10
 cg2d: Sum(rhs),rhsMax =  -1.78832575640596E-02  2.27475760760603E-10
 cg2d: Sum(rhs),rhsMax =  -1.78959161457040E-02  2.27314855649868E-10
 cg2d: Sum(rhs),rhsMax =  -1.79099391157088E-02  2.27136873434761E-10
 cg2d: Sum(rhs),rhsMax =  -1.79269910754342E-02  2.26920822003854E-10
 cg2d: Sum(rhs),rhsMax =  -1.79470860841490E-02  2.26666741793988E-10
 cg2d: Sum(rhs),rhsMax =  -1.79662702070452E-02  2.26424708975412E-10
(PID.TID 0000.0001)      cg2d_init_res =   3.09899144730448E-01
(PID.TID 0000.0001)      cg2d_iters(min,last) =      -1     550
(PID.TID 0000.0001)      cg2d_last_res =   9.30866660079621E-08
(PID.TID 0000.0001) // =======================================================
(PID.TID 0000.0001) // Begin MONITOR dynamic field statistics
(PID.TID 0000.0001) // =======================================================
(PID.TID 0000.0001) %MON time_tsnumber                =                  4864
(PID.TID 0000.0001) %MON time_secondsf                =   2.6265600000000E+07
(PID.TID 0000.0001) %MON dynstat_eta_max              =   2.2399861786988E-09
(PID.TID 0000.0001) %MON dynstat_eta_min              =  -1.9016036770033E-09
(PID.TID 0000.0001) %MON dynstat_eta_mean             =   3.9203879324627E-13
(PID.TID 0000.0001) %MON dynstat_eta_sd               =   1.0143062539772E-09
(PID.TID 0000.0001) %MON dynstat_eta_del2             =   7.6436698322650E-15
(PID.TID 0000.0001) %MON dynstat_uvel_max             =   1.5529208839352E-09
(PID.TID 0000.0001) %MON dynstat_uvel_min             =  -1.0040519267798E-09
(PID.TID 0000.0001) %MON dynstat_uvel_mean            =  -1.2023499977001E-13
(PID.TID 0000.0001) %MON dynstat_uvel_sd              =   4.3019058130678E-10
(PID.TID 0000.0001) %MON dynstat_uvel_del2            =   3.5669330862356E-14
(PID.TID 0000.0001) %MON dynstat_vvel_max             =   1.8683477119156E-09
(PID.TID 0000.0001) %MON dynstat_vvel_min             =  -1.5558194097321E-09
(PID.TID 0000.0001) %MON dynstat_vvel_mean            =  -1.3825094587780E-14
(PID.TID 0000.0001) %MON dynstat_vvel_sd              =   6.6593842629543E-10
(PID.TID 0000.0001) %MON dynstat_vvel_del2            =   3.7953089337798E-14
(PID.TID 0000.0001) %MON dynstat_wvel_max             =   6.1205758730698E-15
(PID.TID 0000.0001) %MON dynstat_wvel_min             =  -4.6708647026550E-15
(PID.TID 0000.0001) %MON dynstat_wvel_mean            =  -1.2168554441609E-28
(PID.TID 0000.0001) %MON dynstat_wvel_sd              =   2.7006639611909E-15
(PID.TID 0000.0001) %MON dynstat_wvel_del2            =   1.6764124139434E-20
(PID.TID 0000.0001) %MON dynstat_theta_max            =   2.0000000000000E+01
(PID.TID 0000.0001) %MON dynstat_theta_min            =   2.0000000000000E+01
(PID.TID 0000.0001) %MON dynstat_theta_mean           =   2.0000000000000E+01
(PID.TID 0000.0001) %MON dynstat_theta_sd             =   0.0000000000000E+00
(PID.TID 0000.0001) %MON dynstat_theta_del2           =   0.0000000000000E+00
(PID.TID 0000.0001) %MON dynstat_salt_max             =   3.0000000000000E+01
(PID.TID 0000.0001) %MON dynstat_salt_min             =   3.0000000000000E+01
(PID.TID 0000.0001) %MON dynstat_salt_mean            =   3.0000000000000E+01
(PID.TID 0000.0001) %MON dynstat_salt_sd              =   0.0000000000000E+00
(PID.TID 0000.0001) %MON dynstat_salt_del2            =   0.0000000000000E+00
(PID.TID 0000.0001) %MON trAdv_CFL_u_max              =   1.6733564059540E-09
(PID.TID 0000.0001) %MON trAdv_CFL_v_max              =   2.0118851553783E-09
(PID.TID 0000.0001) %MON trAdv_CFL_w_max              =   6.6123308123944E-15
(PID.TID 0000.0001) %MON advcfl_uvel_max              =   1.6771545546500E-09
(PID.TID 0000.0001) %MON advcfl_vvel_max              =   2.0178155288689E-09
(PID.TID 0000.0001) %MON advcfl_wvel_max              =   1.3220443885831E-14
(PID.TID 0000.0001) %MON advcfl_W_hf_max              =   0.0000000000000E+00
(PID.TID 0000.0001) %MON pe_b_mean                    =   1.0092698012711E-21
(PID.TID 0000.0001) %MON ke_max                       =   1.7483661803363E-18
(PID.TID 0000.0001) %MON ke_mean                      =   3.1299145311956E-19
(PID.TID 0000.0001) %MON ke_vol                       =   7.5645000000000E+15
(PID.TID 0000.0001) %MON vort_r_min                   =  -7.2223046745670E-14
(PID.TID 0000.0001) %MON vort_r_max                   =   8.4316069773711E-14
(PID.TID 0000.0001) %MON vort_a_mean                  =   8.2300000000000E-05
(PID.TID 0000.0001) %MON vort_a_sd                    =   7.1297555115663E-06
(PID.TID 0000.0001) %MON vort_p_mean                  =   8.3303658536585E-05
(PID.TID 0000.0001) %MON vort_p_sd                    =   1.7411470229781E-05
(PID.TID 0000.0001) %MON surfExpan_theta_mean         =  -2.4431052647307E-27
(PID.TID 0000.0001) %MON surfExpan_salt_mean          =  -3.6555498714592E-27
(PID.TID 0000.0001) // =======================================================
(PID.TID 0000.0001) // End MONITOR dynamic field statistics
(PID.TID 0000.0001) // =======================================================
 cg2d: Sum(rhs),rhsMax =  -1.79875295285720E-02  2.26157098008536E-10
 cg2d: Sum(rhs),rhsMax =  -1.80118589535378E-02  2.25851616102054E-10
 cg2d: Sum(rhs),rhsMax =  -1.80392783887362E-02  2.25508323687848E-10
 cg2d: Sum(rhs),rhsMax =  -1.80649905744499E-02  2.25187352730172E-10
 cg2d: Sum(rhs),rhsMax =  -1.80936345369698E-02  2.24830857965434E-10
 cg2d: Sum(rhs),rhsMax =  -1.81254062909309E-02  2.24436753794579E-10
 cg2d: Sum(rhs),rhsMax =  -1.81595516255129E-02  2.24014744697881E-10
 cg2d: Sum(rhs),rhsMax =  -1.81926104156377E-02  2.23607673699543E-10
 cg2d: Sum(rhs),rhsMax =  -1.82288424492460E-02  2.23163224807032E-10
 cg2d: Sum(rhs),rhsMax =  -1.82682774089465E-02  2.22681490313053E-10
 cg2d: Sum(rhs),rhsMax =  -1.83090451938657E-02  2.22185655626031E-10
 cg2d: Sum(rhs),rhsMax =  -1.83498666182298E-02  2.21691375937485E-10
 cg2d: Sum(rhs),rhsMax =  -1.83939482751978E-02  2.21160084056745E-10
 cg2d: Sum(rhs),rhsMax =  -1.84413265865954E-02  2.20591891523315E-10
 cg2d: Sum(rhs),rhsMax =  -1.84888215863537E-02  2.20025222204573E-10
 cg2d: Sum(rhs),rhsMax =  -1.85377098424024E-02  2.19444962520282E-10
(PID.TID 0000.0001)      cg2d_init_res =   3.21012713304248E-01
(PID.TID 0000.0001)      cg2d_iters(min,last) =      -1     550
(PID.TID 0000.0001)      cg2d_last_res =   9.08214909498111E-08
(PID.TID 0000.0001) // =======================================================
(PID.TID 0000.0001) // Begin MONITOR dynamic field statistics
(PID.TID 0000.0001) // =======================================================
(PID.TID 0000.0001) %MON time_tsnumber                =                  4880
(PID.TID 0000.0001) %MON time_secondsf                =   2.6352000000000E+07
(PID.TID 0000.0001) %MON dynstat_eta_max              =   2.2349040762389E-09
(PID.TID 0000.0001) %MON dynstat_eta_min              =  -1.6863373866848E-09
(PID.TID 0000.0001) %MON dynstat_eta_mean             =   3.9203874726649E-13
(PID.TID 0000.0001) %MON dynstat_eta_sd               =   1.0100650772224E-09
(PID.TID 0000.0001) %MON dynstat_eta_del2             =   7.4088495066587E-15
(PID.TID 0000.0001) %MON dynstat_uvel_max             =   1.5920915338711E-09
(PID.TID 0000.0001) %MON dynstat_uvel_min             =  -1.0948067276084E-09
(PID.TID 0000.0001) %MON dynstat_uvel_mean            =  -1.2568437326681E-13
(PID.TID 0000.0001) %MON dynstat_uvel_sd              =   4.3988824369263E-10
(PID.TID 0000.0001) %MON dynstat_uvel_del2            =   3.4587582134965E-14
(PID.TID 0000.0001) %MON dynstat_vvel_max             =   1.9458251994994E-09
(PID.TID 0000.0001) %MON dynstat_vvel_min             =  -1.3582282885739E-09
(PID.TID 0000.0001) %MON dynstat_vvel_mean            =  -1.1720645416678E-14
(PID.TID 0000.0001) %MON dynstat_vvel_sd              =   6.5331404095787E-10
(PID.TID 0000.0001) %MON dynstat_vvel_del2            =   3.7959927619326E-14
(PID.TID 0000.0001) %MON dynstat_wvel_max             =   6.0402477328192E-15
(PID.TID 0000.0001) %MON dynstat_wvel_min             =  -4.9222470248356E-15
(PID.TID 0000.0001) %MON dynstat_wvel_mean            =  -1.7169326420732E-28
(PID.TID 0000.0001) %MON dynstat_wvel_sd              =   2.6736818393639E-15
(PID.TID 0000.0001) %MON dynstat_wvel_del2            =   1.6936794679829E-20
(PID.TID 0000.0001) %MON dynstat_theta_max            =   2.0000000000000E+01
(PID.TID 0000.0001) %MON dynstat_theta_min            =   2.0000000000000E+01
(PID.TID 0000.0001) %MON dynstat_theta_mean           =   2.0000000000000E+01
(PID.TID 0000.0001) %MON dynstat_theta_sd             =   0.0000000000000E+00
(PID.TID 0000.0001) %MON dynstat_theta_del2           =   0.0000000000000E+00
(PID.TID 0000.0001) %MON dynstat_salt_max             =   3.0000000000000E+01
(PID.TID 0000.0001) %MON dynstat_salt_min             =   3.0000000000000E+01
(PID.TID 0000.0001) %MON dynstat_salt_mean            =   3.0000000000000E+01
(PID.TID 0000.0001) %MON dynstat_salt_sd              =   0.0000000000000E+00
(PID.TID 0000.0001) %MON dynstat_salt_del2            =   0.0000000000000E+00
(PID.TID 0000.0001) %MON trAdv_CFL_u_max              =   1.7180230355828E-09
(PID.TID 0000.0001) %MON trAdv_CFL_v_max              =   2.0970910498490E-09
(PID.TID 0000.0001) %MON trAdv_CFL_w_max              =   6.5312596102429E-15
(PID.TID 0000.0001) %MON advcfl_uvel_max              =   1.7194588565808E-09
(PID.TID 0000.0001) %MON advcfl_vvel_max              =   2.1014912154593E-09
(PID.TID 0000.0001) %MON advcfl_wvel_max              =   1.3046935102889E-14
(PID.TID 0000.0001) %MON advcfl_W_hf_max              =   0.0000000000000E+00
(PID.TID 0000.0001) %MON pe_b_mean                    =   1.0008472132542E-21
(PID.TID 0000.0001) %MON ke_max                       =   1.9028688563906E-18
(PID.TID 0000.0001) %MON ke_mean                      =   3.0889964461682E-19
(PID.TID 0000.0001) %MON ke_vol                       =   7.5645000000000E+15
(PID.TID 0000.0001) %MON vort_r_min                   =  -5.8398314769295E-14
(PID.TID 0000.0001) %MON vort_r_max                   =   8.3053374031423E-14
(PID.TID 0000.0001) %MON vort_a_mean                  =   8.2299999999999E-05
(PID.TID 0000.0001) %MON vort_a_sd                    =   7.1297555115698E-06
(PID.TID 0000.0001) %MON vort_p_mean                  =   8.3303658536584E-05
(PID.TID 0000.0001) %MON vort_p_sd                    =   1.7411470229808E-05
(PID.TID 0000.0001) %MON surfExpan_theta_mean         =  -3.3965164578110E-27
(PID.TID 0000.0001) %MON surfExpan_salt_mean          =  -5.1011662050758E-27
(PID.TID 0000.0001) // =======================================================
(PID.TID 0000.0001) // End MONITOR dynamic field statistics
(PID.TID 0000.0001) // =======================================================
 cg2d: Sum(rhs),rhsMax =  -1.85899648788236E-02  2.18828116558350E-10
 cg2d: Sum(rhs),rhsMax =  -1.86456303982760E-02  2.18174814756010E-10
 cg2d: Sum(rhs),rhsMax =  -1.86999936066519E-02  2.17540550769472E-10
 cg2d: Sum(rhs),rhsMax =  -1.87573184950982E-02  2.16875714781610E-10
 cg2d: Sum(rhs),rhsMax =  -1.88181380336863E-02  2.16174777273007E-10
 cg2d: Sum(rhs),rhsMax =  -1.88812997947377E-02  2.15451625503516E-10
 cg2d: Sum(rhs),rhsMax =  -1.89439135669482E-02  2.14739507016339E-10
 cg2d: Sum(rhs),rhsMax =  -1.90101166781688E-02  2.13991668884156E-10
 cg2d: Sum(rhs),rhsMax =  -1.90799657457094E-02  2.13208271569955E-10
 cg2d: Sum(rhs),rhsMax =  -1.91503500617906E-02  2.12424651159844E-10
 cg2d: Sum(rhs),rhsMax =  -1.92221946371218E-02  2.11630690807941E-10
 cg2d: Sum(rhs),rhsMax =  -1.92977965082337E-02  2.10801590975726E-10
 cg2d: Sum(rhs),rhsMax =  -1.93772197686642E-02  2.09937529274855E-10
 cg2d: Sum(rhs),rhsMax =  -1.94550776433773E-02  2.09097365100846E-10
 cg2d: Sum(rhs),rhsMax =  -1.95367332512880E-02  2.08223408938495E-10
 cg2d: Sum(rhs),rhsMax =  -1.96223404803081E-02  2.07314948082352E-10
(PID.TID 0000.0001)      cg2d_init_res =   3.38674436203805E-01
(PID.TID 0000.0001)      cg2d_iters(min,last) =      -1     552
(PID.TID 0000.0001)      cg2d_last_res =   9.48544220835133E-08
(PID.TID 0000.0001) // =======================================================
(PID.TID 0000.0001) // Begin MONITOR dynamic field statistics
(PID.TID 0000.0001) // =======================================================
(PID.TID 0000.0001) %MON time_tsnumber                =                  4896
(PID.TID 0000.0001) %MON time_secondsf                =   2.6438400000000E+07
(PID.TID 0000.0001) %MON dynstat_eta_max              =   2.2028980925551E-09
(PID.TID 0000.0001) %MON dynstat_eta_min              =  -1.4561775617615E-09
(PID.TID 0000.0001) %MON dynstat_eta_mean             =   3.9203863536399E-13
(PID.TID 0000.0001) %MON dynstat_eta_sd               =   1.0081177818336E-09
(PID.TID 0000.0001) %MON dynstat_eta_del2             =   7.1908656768559E-15
(PID.TID 0000.0001) %MON dynstat_uvel_max             =   1.5954839419008E-09
(PID.TID 0000.0001) %MON dynstat_uvel_min             =  -1.1596501174414E-09
(PID.TID 0000.0001) %MON dynstat_uvel_mean            =  -1.2447842521731E-13
(PID.TID 0000.0001) %MON dynstat_uvel_sd              =   4.4268373183708E-10
(PID.TID 0000.0001) %MON dynstat_uvel_del2            =   3.3293365746343E-14
(PID.TID 0000.0001) %MON dynstat_vvel_max             =   1.9927602701329E-09
(PID.TID 0000.0001) %MON dynstat_vvel_min             =  -1.3740893709751E-09
(PID.TID 0000.0001) %MON dynstat_vvel_mean            =  -9.4439920338090E-15
(PID.TID 0000.0001) %MON dynstat_vvel_sd              =   6.4543633720337E-10
(PID.TID 0000.0001) %MON dynstat_vvel_del2            =   3.8392636742538E-14
(PID.TID 0000.0001) %MON dynstat_wvel_max             =   5.8693435722734E-15
(PID.TID 0000.0001) %MON dynstat_wvel_min             =  -5.1572401772726E-15
(PID.TID 0000.0001) %MON dynstat_wvel_mean            =  -1.0211584032199E-28
(PID.TID 0000.0001) %MON dynstat_wvel_sd              =   2.6402579316458E-15
(PID.TID 0000.0001) %MON dynstat_wvel_del2            =   1.7033460900587E-20
(PID.TID 0000.0001) %MON dynstat_theta_max            =   2.0000000000000E+01
(PID.TID 0000.0001) %MON dynstat_theta_min            =   2.0000000000000E+01
(PID.TID 0000.0001) %MON dynstat_theta_mean           =   2.0000000000000E+01
(PID.TID 0000.0001) %MON dynstat_theta_sd             =   0.0000000000000E+00
(PID.TID 0000.0001) %MON dynstat_theta_del2           =   0.0000000000000E+00
(PID.TID 0000.0001) %MON dynstat_salt_max             =   3.0000000000000E+01
(PID.TID 0000.0001) %MON dynstat_salt_min             =   3.0000000000000E+01
(PID.TID 0000.0001) %MON dynstat_salt_mean            =   3.0000000000000E+01
(PID.TID 0000.0001) %MON dynstat_salt_sd              =   0.0000000000000E+00
(PID.TID 0000.0001) %MON dynstat_salt_del2            =   0.0000000000000E+00
(PID.TID 0000.0001) %MON trAdv_CFL_u_max              =   1.7239448546090E-09
(PID.TID 0000.0001) %MON trAdv_CFL_v_max              =   2.1502970316974E-09
(PID.TID 0000.0001) %MON trAdv_CFL_w_max              =   6.3536330086156E-15
(PID.TID 0000.0001) %MON advcfl_uvel_max              =   1.7231226572528E-09
(PID.TID 0000.0001) %MON advcfl_vvel_max              =   2.1521810917435E-09
(PID.TID 0000.0001) %MON advcfl_wvel_max              =   1.2677782116111E-14
(PID.TID 0000.0001) %MON advcfl_W_hf_max              =   0.0000000000000E+00
(PID.TID 0000.0001) %MON pe_b_mean                    =   9.9699188504429E-22
(PID.TID 0000.0001) %MON ke_max                       =   2.0038139170452E-18
(PID.TID 0000.0001) %MON ke_mean                      =   3.0503344921330E-19
(PID.TID 0000.0001) %MON ke_vol                       =   7.5645000000000E+15
(PID.TID 0000.0001) %MON vort_r_min                   =  -4.8898779848195E-14
(PID.TID 0000.0001) %MON vort_r_max                   =   7.9804987531912E-14
(PID.TID 0000.0001) %MON vort_a_mean                  =   8.2300000000001E-05
(PID.TID 0000.0001) %MON vort_a_sd                    =   7.1297555115519E-06
(PID.TID 0000.0001) %MON vort_p_mean                  =   8.3303658536586E-05
(PID.TID 0000.0001) %MON vort_p_sd                    =   1.7411470229818E-05
(PID.TID 0000.0001) %MON surfExpan_theta_mean         =  -2.0515698975964E-27
(PID.TID 0000.0001) %MON surfExpan_salt_mean          =  -3.0839367218179E-27
(PID.TID 0000.0001) // =======================================================
(PID.TID 0000.0001) // End MONITOR dynamic field statistics
(PID.TID 0000.0001) // =======================================================
 cg2d: Sum(rhs),rhsMax =  -1.97095676226397E-02  2.06397518057507E-10
 cg2d: Sum(rhs),rhsMax =  -1.97976165347412E-02  2.05479593096564E-10
 cg2d: Sum(rhs),rhsMax =  -1.98897630495908E-02  2.04527644901782E-10
 cg2d: Sum(rhs),rhsMax =  -1.99860911245293E-02  2.03541878801485E-10
 cg2d: Sum(rhs),rhsMax =  -2.00813555280150E-02  2.02576297469191E-10
 cg2d: Sum(rhs),rhsMax =  -2.01804253910437E-02  2.01581813298651E-10
 cg2d: Sum(rhs),rhsMax =  -2.02838450245070E-02  2.00554027178915E-10
 cg2d: Sum(rhs),rhsMax =  -2.03889735522124E-02  1.99519943853836E-10
 cg2d: Sum(rhs),rhsMax =  -2.04953985321075E-02  1.98483913445695E-10
 cg2d: Sum(rhs),rhsMax =  -2.06063595682093E-02  1.97415120333975E-10
 cg2d: Sum(rhs),rhsMax =  -2.07216023564622E-02  1.96317201928950E-10
 cg2d: Sum(rhs),rhsMax =  -2.08358606602329E-02  1.95240652574891E-10
 cg2d: Sum(rhs),rhsMax =  -2.09548612265684E-02  1.94131902085043E-10
 cg2d: Sum(rhs),rhsMax =  -2.10787190981319E-02  1.92991190938231E-10
 cg2d: Sum(rhs),rhsMax =  -2.12031121477854E-02  1.91858964229935E-10
 cg2d: Sum(rhs),rhsMax =  -2.13307039034671E-02  1.90711341888420E-10
(PID.TID 0000.0001)      cg2d_init_res =   3.64130557532122E-01
(PID.TID 0000.0001)      cg2d_iters(min,last) =      -1     553
(PID.TID 0000.0001)      cg2d_last_res =   8.87927368854238E-08
(PID.TID 0000.0001) // =======================================================
(PID.TID 0000.0001) // Begin MONITOR dynamic field statistics
(PID.TID 0000.0001) // =======================================================
(PID.TID 0000.0001) %MON time_tsnumber                =                  4912
(PID.TID 0000.0001) %MON time_secondsf                =   2.6524800000000E+07
(PID.TID 0000.0001) %MON dynstat_eta_max              =   2.1463302325788E-09
(PID.TID 0000.0001) %MON dynstat_eta_min              =  -1.3855430144091E-09
(PID.TID 0000.0001) %MON dynstat_eta_mean             =   3.9203876591434E-13
(PID.TID 0000.0001) %MON dynstat_eta_sd               =   1.0073859033854E-09
(PID.TID 0000.0001) %MON dynstat_eta_del2             =   7.0095857886960E-15
(PID.TID 0000.0001) %MON dynstat_uvel_max             =   1.5629231004335E-09
(PID.TID 0000.0001) %MON dynstat_uvel_min             =  -1.2007338778362E-09
(PID.TID 0000.0001) %MON dynstat_uvel_mean            =  -1.1679498971757E-13
(PID.TID 0000.0001) %MON dynstat_uvel_sd              =   4.3796421421895E-10
(PID.TID 0000.0001) %MON dynstat_uvel_del2            =   3.2005054011859E-14
(PID.TID 0000.0001) %MON dynstat_vvel_max             =   2.0103883068096E-09
(PID.TID 0000.0001) %MON dynstat_vvel_min             =  -1.4654288297243E-09
(PID.TID 0000.0001) %MON dynstat_vvel_mean            =  -7.1046686858988E-15
(PID.TID 0000.0001) %MON dynstat_vvel_sd              =   6.4289850150186E-10
(PID.TID 0000.0001) %MON dynstat_vvel_del2            =   3.8976579630011E-14
(PID.TID 0000.0001) %MON dynstat_wvel_max             =   5.6012748131384E-15
(PID.TID 0000.0001) %MON dynstat_wvel_min             =  -5.3678211749120E-15
(PID.TID 0000.0001) %MON dynstat_wvel_mean            =  -3.4562787221173E-30
(PID.TID 0000.0001) %MON dynstat_wvel_sd              =   2.6027167132016E-15
(PID.TID 0000.0001) %MON dynstat_wvel_del2            =   1.7010124883977E-20
(PID.TID 0000.0001) %MON dynstat_theta_max            =   2.0000000000000E+01
(PID.TID 0000.0001) %MON dynstat_theta_min            =   2.0000000000000E+01
(PID.TID 0000.0001) %MON dynstat_theta_mean           =   2.0000000000000E+01
(PID.TID 0000.0001) %MON dynstat_theta_sd             =   0.0000000000000E+00
(PID.TID 0000.0001) %MON dynstat_theta_del2           =   0.0000000000000E+00
(PID.TID 0000.0001) %MON dynstat_salt_max             =   3.0000000000000E+01
(PID.TID 0000.0001) %MON dynstat_salt_min             =   3.0000000000000E+01
(PID.TID 0000.0001) %MON dynstat_salt_mean            =   3.0000000000000E+01
(PID.TID 0000.0001) %MON dynstat_salt_sd              =   0.0000000000000E+00
(PID.TID 0000.0001) %MON dynstat_salt_del2            =   0.0000000000000E+00
(PID.TID 0000.0001) %MON trAdv_CFL_u_max              =   1.6911427151648E-09
(PID.TID 0000.0001) %MON trAdv_CFL_v_max              =   2.1709090171892E-09
(PID.TID 0000.0001) %MON trAdv_CFL_w_max              =   6.0698475294996E-15
(PID.TID 0000.0001) %MON advcfl_uvel_max              =   1.6879569484682E-09
(PID.TID 0000.0001) %MON advcfl_vvel_max              =   2.1712193713543E-09
(PID.TID 0000.0001) %MON advcfl_wvel_max              =   1.2098753596379E-14
(PID.TID 0000.0001) %MON advcfl_W_hf_max              =   0.0000000000000E+00
(PID.TID 0000.0001) %MON pe_b_mean                    =   9.9554480830547E-22
(PID.TID 0000.0001) %MON ke_max                       =   2.0485176006044E-18
(PID.TID 0000.0001) %MON ke_mean                      =   3.0133563356914E-19
(PID.TID 0000.0001) %MON ke_vol                       =   7.5645000000000E+15
(PID.TID 0000.0001) %MON vort_r_min                   =  -5.6324609806763E-14
(PID.TID 0000.0001) %MON vort_r_max                   =   7.4742958847931E-14
(PID.TID 0000.0001) %MON vort_a_mean                  =   8.2299999999999E-05
(PID.TID 0000.0001) %MON vort_a_sd                    =   7.1297555115667E-06
(PID.TID 0000.0001) %MON vort_p_mean                  =   8.3303658536585E-05
(PID.TID 0000.0001) %MON vort_p_sd                    =   1.7411470229836E-05
(PID.TID 0000.0001) %MON surfExpan_theta_mean         =  -7.4192785426200E-29
(PID.TID 0000.0001) %MON surfExpan_salt_mean          =  -1.0747755787034E-28
(PID.TID 0000.0001) // =======================================================
(PID.TID 0000.0001) // End MONITOR dynamic field statistics
(PID.TID 0000.0001) // =======================================================
 cg2d: Sum(rhs),rhsMax =  -2.14633922700436E-02  1.89532350855844E-10
 cg2d: Sum(rhs),rhsMax =  -2.15985872173162E-02  1.88345986808104E-10
 cg2d: Sum(rhs),rhsMax =  -2.17353810883026E-02  1.87160613114424E-10
 cg2d: Sum(rhs),rhsMax =  -2.18775368381564E-02  1.85944482944949E-10
 cg2d: Sum(rhs),rhsMax =  -2.20238666934319E-02  1.84709041270405E-10
 cg2d: Sum(rhs),rhsMax =  -2.21705393677336E-02  1.83487070815097E-10
 cg2d: Sum(rhs),rhsMax =  -2.23228682751681E-02  1.82234975385243E-10
 cg2d: Sum(rhs),rhsMax =  -2.24806924155704E-02  1.80955608328142E-10
 cg2d: Sum(rhs),rhsMax =  -2.26379938197204E-02  1.79698228865393E-10
 cg2d: Sum(rhs),rhsMax =  -2.28012784085481E-02  1.78411374241574E-10
 cg2d: Sum(rhs),rhsMax =  -2.29707218570660E-02  1.77095324380545E-10
 cg2d: Sum(rhs),rhsMax =  -2.31397455973778E-02  1.75801736622355E-10
 cg2d: Sum(rhs),rhsMax =  -2.33148542630012E-02  1.74481360094007E-10
 cg2d: Sum(rhs),rhsMax =  -2.34965033958154E-02  1.73132462951867E-10
 cg2d: Sum(rhs),rhsMax =  -2.36780018727129E-02  1.71805355252974E-10
 cg2d: Sum(rhs),rhsMax =  -2.38658992441009E-02  1.70452724333051E-10
(PID.TID 0000.0001)      cg2d_init_res =   4.00015765859702E-01
(PID.TID 0000.0001)      cg2d_iters(min,last) =      -1     554
(PID.TID 0000.0001)      cg2d_last_res =   9.23985086560439E-08
(PID.TID 0000.0001) // =======================================================
(PID.TID 0000.0001) // Begin MONITOR dynamic field statistics
(PID.TID 0000.0001) // =======================================================
(PID.TID 0000.0001) %MON time_tsnumber                =                  4928
(PID.TID 0000.0001) %MON time_secondsf                =   2.6611200000000E+07
(PID.TID 0000.0001) %MON dynstat_eta_max              =   2.2675436902668E-09
(PID.TID 0000.0001) %MON dynstat_eta_min              =  -1.5400258425480E-09
(PID.TID 0000.0001) %MON dynstat_eta_mean             =   3.9203880128261E-13
(PID.TID 0000.0001) %MON dynstat_eta_sd               =   1.0065176764525E-09
(PID.TID 0000.0001) %MON dynstat_eta_del2             =   6.8785847691935E-15
(PID.TID 0000.0001) %MON dynstat_uvel_max             =   1.4949069294286E-09
(PID.TID 0000.0001) %MON dynstat_uvel_min             =  -1.2111187131940E-09
(PID.TID 0000.0001) %MON dynstat_uvel_mean            =  -1.0315703007668E-13
(PID.TID 0000.0001) %MON dynstat_uvel_sd              =   4.2624487648531E-10
(PID.TID 0000.0001) %MON dynstat_uvel_del2            =   3.0943401747253E-14
(PID.TID 0000.0001) %MON dynstat_vvel_max             =   1.9966458134415E-09
(PID.TID 0000.0001) %MON dynstat_vvel_min             =  -1.5336323536503E-09
(PID.TID 0000.0001) %MON dynstat_vvel_mean            =  -4.8091709100331E-15
(PID.TID 0000.0001) %MON dynstat_vvel_sd              =   6.4516617377563E-10
(PID.TID 0000.0001) %MON dynstat_vvel_del2            =   3.9446711661880E-14
(PID.TID 0000.0001) %MON dynstat_wvel_max             =   5.2396465022309E-15
(PID.TID 0000.0001) %MON dynstat_wvel_min             =  -5.5431081366630E-15
(PID.TID 0000.0001) %MON dynstat_wvel_mean            =   1.9195036602323E-29
(PID.TID 0000.0001) %MON dynstat_wvel_sd              =   2.5642890786993E-15
(PID.TID 0000.0001) %MON dynstat_wvel_del2            =   1.6870672534814E-20
(PID.TID 0000.0001) %MON dynstat_theta_max            =   2.0000000000000E+01
(PID.TID 0000.0001) %MON dynstat_theta_min            =   2.0000000000000E+01
(PID.TID 0000.0001) %MON dynstat_theta_mean           =   2.0000000000000E+01
(PID.TID 0000.0001) %MON dynstat_theta_sd             =   0.0000000000000E+00
(PID.TID 0000.0001) %MON dynstat_theta_del2           =   0.0000000000000E+00
(PID.TID 0000.0001) %MON dynstat_salt_max             =   3.0000000000000E+01
(PID.TID 0000.0001) %MON dynstat_salt_min             =   3.0000000000000E+01
(PID.TID 0000.0001) %MON dynstat_salt_mean            =   3.0000000000000E+01
(PID.TID 0000.0001) %MON dynstat_salt_sd              =   0.0000000000000E+00
(PID.TID 0000.0001) %MON dynstat_salt_del2            =   0.0000000000000E+00
(PID.TID 0000.0001) %MON trAdv_CFL_u_max              =   1.6202854457192E-09
(PID.TID 0000.0001) %MON trAdv_CFL_v_max              =   2.1585535716742E-09
(PID.TID 0000.0001) %MON trAdv_CFL_w_max              =   5.6856295489682E-15
(PID.TID 0000.0001) %MON advcfl_uvel_max              =   1.6144994837829E-09
(PID.TID 0000.0001) %MON advcfl_vvel_max              =   2.1563774785169E-09
(PID.TID 0000.0001) %MON advcfl_wvel_max              =   1.1973113575192E-14
(PID.TID 0000.0001) %MON advcfl_W_hf_max              =   0.0000000000000E+00
(PID.TID 0000.0001) %MON pe_b_mean                    =   9.9382950495832E-22
(PID.TID 0000.0001) %MON ke_max                       =   2.0294049339014E-18
(PID.TID 0000.0001) %MON ke_mean                      =   2.9774675570894E-19
(PID.TID 0000.0001) %MON ke_vol                       =   7.5645000000000E+15
(PID.TID 0000.0001) %MON vort_r_min                   =  -6.0767332194270E-14
(PID.TID 0000.0001) %MON vort_r_max                   =   6.8113990663653E-14
(PID.TID 0000.0001) %MON vort_a_mean                  =   8.2300000000000E-05
(PID.TID 0000.0001) %MON vort_a_sd                    =   7.1297555115589E-06
(PID.TID 0000.0001) %MON vort_p_mean                  =   8.3303658536586E-05
(PID.TID 0000.0001) %MON vort_p_sd                    =   1.7411470229836E-05
(PID.TID 0000.0001) %MON surfExpan_theta_mean         =   3.9842020422299E-28
(PID.TID 0000.0001) %MON surfExpan_salt_mean          =   5.9431581893459E-28
(PID.TID 0000.0001) // =======================================================
(PID.TID 0000.0001) // End MONITOR dynamic field statistics
(PID.TID 0000.0001) // =======================================================
 cg2d: Sum(rhs),rhsMax =  -2.40606438426548E-02  1.69073096635782E-10
 cg2d: Sum(rhs),rhsMax =  -2.42551988314293E-02  1.67716933934861E-10
 cg2d: Sum(rhs),rhsMax =  -2.44569577414099E-02  1.66333345329253E-10
 cg2d: Sum(rhs),rhsMax =  -2.46649218450687E-02  1.64930894161574E-10
 cg2d: Sum(rhs),rhsMax =  -2.48740280085340E-02  1.63544385728982E-10
 cg2d: Sum(rhs),rhsMax =  -2.50908433525990E-02  1.62131164300942E-10
 cg2d: Sum(rhs),rhsMax =  -2.53125369199833E-02  1.60711179353991E-10
 cg2d: Sum(rhs),rhsMax =  -2.55374664721473E-02  1.59295663950761E-10
 cg2d: Sum(rhs),rhsMax =  -2.57706711748811E-02  1.57854161602507E-10
 cg2d: Sum(rhs),rhsMax =  -2.60066387116440E-02  1.56421894928736E-10
 cg2d: Sum(rhs),rhsMax =  -2.62488117242237E-02  1.54978738300119E-10
 cg2d: Sum(rhs),rhsMax =  -2.64989922413554E-02  1.53515563995290E-10
 cg2d: Sum(rhs),rhsMax =  -2.67507174089405E-02  1.52070977800100E-10
 cg2d: Sum(rhs),rhsMax =  -2.70117218833535E-02  1.50601571500940E-10
 cg2d: Sum(rhs),rhsMax =  -2.72770751127527E-02  1.49136509744233E-10
 cg2d: Sum(rhs),rhsMax =  -2.75486471443764E-02  1.47666336230685E-10
(PID.TID 0000.0001)      cg2d_init_res =   4.50612362133953E-01
(PID.TID 0000.0001)      cg2d_iters(min,last) =      -1     555
(PID.TID 0000.0001)      cg2d_last_res =   9.12159018898689E-08
(PID.TID 0000.0001) // =======================================================
(PID.TID 0000.0001) // Begin MONITOR dynamic field statistics
(PID.TID 0000.0001) // =======================================================
(PID.TID 0000.0001) %MON time_tsnumber                =                  4944
(PID.TID 0000.0001) %MON time_secondsf                =   2.6697600000000E+07
(PID.TID 0000.0001) %MON dynstat_eta_max              =   2.3804855855422E-09
(PID.TID 0000.0001) %MON dynstat_eta_min              =  -1.6904303665169E-09
(PID.TID 0000.0001) %MON dynstat_eta_mean             =   3.9203882461479E-13
(PID.TID 0000.0001) %MON dynstat_eta_sd               =   1.0041483246394E-09
(PID.TID 0000.0001) %MON dynstat_eta_del2             =   6.8025259397134E-15
(PID.TID 0000.0001) %MON dynstat_uvel_max             =   1.3946342470570E-09
(PID.TID 0000.0001) %MON dynstat_uvel_min             =  -1.1950921549783E-09
(PID.TID 0000.0001) %MON dynstat_uvel_mean            =  -8.4399954163715E-14
(PID.TID 0000.0001) %MON dynstat_uvel_sd              =   4.0905221877597E-10
(PID.TID 0000.0001) %MON dynstat_uvel_del2            =   3.0280983513967E-14
(PID.TID 0000.0001) %MON dynstat_vvel_max             =   1.9544916885251E-09
(PID.TID 0000.0001) %MON dynstat_vvel_min             =  -1.5762471252550E-09
(PID.TID 0000.0001) %MON dynstat_vvel_mean            =  -2.6554433767957E-15
(PID.TID 0000.0001) %MON dynstat_vvel_sd              =   6.5077370480918E-10
(PID.TID 0000.0001) %MON dynstat_vvel_del2            =   3.9592992092899E-14
(PID.TID 0000.0001) %MON dynstat_wvel_max             =   4.7962427218717E-15
(PID.TID 0000.0001) %MON dynstat_wvel_min             =  -5.6758676224289E-15
(PID.TID 0000.0001) %MON dynstat_wvel_mean            =   4.0413530275239E-30
(PID.TID 0000.0001) %MON dynstat_wvel_sd              =   2.5285311995529E-15
(PID.TID 0000.0001) %MON dynstat_wvel_del2            =   1.6616320652686E-20
(PID.TID 0000.0001) %MON dynstat_theta_max            =   2.0000000000000E+01
(PID.TID 0000.0001) %MON dynstat_theta_min            =   2.0000000000000E+01
(PID.TID 0000.0001) %MON dynstat_theta_mean           =   2.0000000000000E+01
(PID.TID 0000.0001) %MON dynstat_theta_sd             =   0.0000000000000E+00
(PID.TID 0000.0001) %MON dynstat_theta_del2           =   0.0000000000000E+00
(PID.TID 0000.0001) %MON dynstat_salt_max             =   3.0000000000000E+01
(PID.TID 0000.0001) %MON dynstat_salt_min             =   3.0000000000000E+01
(PID.TID 0000.0001) %MON dynstat_salt_mean            =   3.0000000000000E+01
(PID.TID 0000.0001) %MON dynstat_salt_sd              =   0.0000000000000E+00
(PID.TID 0000.0001) %MON dynstat_salt_del2            =   0.0000000000000E+00
(PID.TID 0000.0001) %MON trAdv_CFL_u_max              =   1.5140666157985E-09
(PID.TID 0000.0001) %MON trAdv_CFL_v_max              =   2.1144084660129E-09
(PID.TID 0000.0001) %MON trAdv_CFL_w_max              =   5.2126151030563E-15
(PID.TID 0000.0001) %MON advcfl_uvel_max              =   1.5062049868216E-09
(PID.TID 0000.0001) %MON advcfl_vvel_max              =   2.1108510236071E-09
(PID.TID 0000.0001) %MON advcfl_wvel_max              =   1.2259874064446E-14
(PID.TID 0000.0001) %MON advcfl_W_hf_max              =   0.0000000000000E+00
(PID.TID 0000.0001) %MON pe_b_mean                    =   9.8915604535077E-22
(PID.TID 0000.0001) %MON ke_max                       =   1.9522930306404E-18
(PID.TID 0000.0001) %MON ke_mean                      =   2.9421419557585E-19
(PID.TID 0000.0001) %MON ke_vol                       =   7.5645000000000E+15
(PID.TID 0000.0001) %MON vort_r_min                   =  -6.2183112612899E-14
(PID.TID 0000.0001) %MON vort_r_max                   =   6.1191837488546E-14
(PID.TID 0000.0001) %MON vort_a_mean                  =   8.2299999999998E-05
(PID.TID 0000.0001) %MON vort_a_sd                    =   7.1297555115768E-06
(PID.TID 0000.0001) %MON vort_p_mean                  =   8.3303658536584E-05
(PID.TID 0000.0001) %MON vort_p_sd                    =   1.7411470229840E-05
(PID.TID 0000.0001) %MON surfExpan_theta_mean         =   8.9705206517862E-29
(PID.TID 0000.0001) %MON surfExpan_salt_mean          =   1.3839630398419E-28
(PID.TID 0000.0001) // =======================================================
(PID.TID 0000.0001) // End MONITOR dynamic field statistics
(PID.TID 0000.0001) // =======================================================
 cg2d: Sum(rhs),rhsMax =  -2.78285941420147E-02  1.46180859264571E-10
 cg2d: Sum(rhs),rhsMax =  -2.78781879866301E-02  1.45920811630184E-10
 cg2d: Sum(rhs),rhsMax =  -2.76093546358593E-02  1.47341648600933E-10
 cg2d: Sum(rhs),rhsMax =  -2.73497352301630E-02  1.48740300653023E-10
 cg2d: Sum(rhs),rhsMax =  -2.70943725267873E-02  1.50142168877747E-10
 cg2d: Sum(rhs),rhsMax =  -2.68428868194224E-02  1.51548821792856E-10
 cg2d: Sum(rhs),rhsMax =  -2.66000132326786E-02  1.52932551167098E-10
 cg2d: Sum(rhs),rhsMax =  -2.63654631912669E-02  1.54293056377479E-10
 cg2d: Sum(rhs),rhsMax =  -2.61306260766393E-02  1.55679695523846E-10
 cg2d: Sum(rhs),rhsMax =  -2.59031190791505E-02  1.57047030254490E-10
 cg2d: Sum(rhs),rhsMax =  -2.56834217578445E-02  1.58390419176661E-10
 cg2d: Sum(rhs),rhsMax =  -2.54683662767339E-02  1.59727872146893E-10
 cg2d: Sum(rhs),rhsMax =  -2.52549963799258E-02  1.61077353015242E-10
 cg2d: Sum(rhs),rhsMax =  -2.50489741094906E-02  1.62402179127400E-10
 cg2d: Sum(rhs),rhsMax =  -2.48500711216487E-02  1.63702066532118E-10
 cg2d: Sum(rhs),rhsMax =  -2.46520216787472E-02  1.65017216964140E-10
(PID.TID 0000.0001)      cg2d_init_res =   3.91897966800962E-01
(PID.TID 0000.0001)      cg2d_iters(min,last) =      -1     553
(PID.TID 0000.0001)      cg2d_last_res =   9.11886455166596E-08
(PID.TID 0000.0001) // =======================================================
(PID.TID 0000.0001) // Begin MONITOR dynamic field statistics
(PID.TID 0000.0001) // =======================================================
(PID.TID 0000.0001) %MON time_tsnumber                =                  4960
(PID.TID 0000.0001) %MON time_secondsf                =   2.6784000000000E+07
(PID.TID 0000.0001) %MON dynstat_eta_max              =   2.4482827446916E-09
(PID.TID 0000.0001) %MON dynstat_eta_min              =  -1.8322053394227E-09
(PID.TID 0000.0001) %MON dynstat_eta_mean             =   3.9203884588890E-13
(PID.TID 0000.0001) %MON dynstat_eta_sd               =   9.9915300249203E-10
(PID.TID 0000.0001) %MON dynstat_eta_del2             =   6.7764661330063E-15
(PID.TID 0000.0001) %MON dynstat_uvel_max             =   1.2677629824434E-09
(PID.TID 0000.0001) %MON dynstat_uvel_min             =  -1.1521362257122E-09
(PID.TID 0000.0001) %MON dynstat_uvel_mean            =  -6.1622335320741E-14
(PID.TID 0000.0001) %MON dynstat_uvel_sd              =   3.8876266814387E-10
(PID.TID 0000.0001) %MON dynstat_uvel_del2            =   3.0092087602120E-14
(PID.TID 0000.0001) %MON dynstat_vvel_max             =   1.8841139186496E-09
(PID.TID 0000.0001) %MON dynstat_vvel_min             =  -1.5916550610967E-09
(PID.TID 0000.0001) %MON dynstat_vvel_mean            =  -7.2796030054898E-16
(PID.TID 0000.0001) %MON dynstat_vvel_sd              =   6.5775003428255E-10
(PID.TID 0000.0001) %MON dynstat_vvel_del2            =   3.9279674956232E-14
(PID.TID 0000.0001) %MON dynstat_wvel_max             =   4.2881715414667E-15
(PID.TID 0000.0001) %MON dynstat_wvel_min             =  -5.7621910823369E-15
(PID.TID 0000.0001) %MON dynstat_wvel_mean            =   4.3832787459760E-29
(PID.TID 0000.0001) %MON dynstat_wvel_sd              =   2.4986152032523E-15
(PID.TID 0000.0001) %MON dynstat_wvel_del2            =   1.6264185812714E-20
(PID.TID 0000.0001) %MON dynstat_theta_max            =   2.0000000000000E+01
(PID.TID 0000.0001) %MON dynstat_theta_min            =   2.0000000000000E+01
(PID.TID 0000.0001) %MON dynstat_theta_mean           =   2.0000000000000E+01
(PID.TID 0000.0001) %MON dynstat_theta_sd             =   0.0000000000000E+00
(PID.TID 0000.0001) %MON dynstat_theta_del2           =   0.0000000000000E+00
(PID.TID 0000.0001) %MON dynstat_salt_max             =   3.0000000000000E+01
(PID.TID 0000.0001) %MON dynstat_salt_min             =   3.0000000000000E+01
(PID.TID 0000.0001) %MON dynstat_salt_mean            =   3.0000000000000E+01
(PID.TID 0000.0001) %MON dynstat_salt_sd              =   0.0000000000000E+00
(PID.TID 0000.0001) %MON dynstat_salt_del2            =   0.0000000000000E+00
(PID.TID 0000.0001) %MON trAdv_CFL_u_max              =   1.3783520193796E-09
(PID.TID 0000.0001) %MON trAdv_CFL_v_max              =   2.0406167634607E-09
(PID.TID 0000.0001) %MON trAdv_CFL_w_max              =   4.6667180845672E-15
(PID.TID 0000.0001) %MON advcfl_uvel_max              =   1.3691840210389E-09
(PID.TID 0000.0001) %MON advcfl_vvel_max              =   2.0348430321416E-09
(PID.TID 0000.0001) %MON advcfl_wvel_max              =   1.2446332737848E-14
(PID.TID 0000.0001) %MON advcfl_W_hf_max              =   0.0000000000000E+00
(PID.TID 0000.0001) %MON pe_b_mean                    =   9.7933904543771E-22
(PID.TID 0000.0001) %MON ke_max                       =   1.8212066724268E-18
(PID.TID 0000.0001) %MON ke_mean                      =   2.9069923428257E-19
(PID.TID 0000.0001) %MON ke_vol                       =   7.5645000000000E+15
(PID.TID 0000.0001) %MON vort_r_min                   =  -6.0721912322461E-14
(PID.TID 0000.0001) %MON vort_r_max                   =   5.6140155760821E-14
(PID.TID 0000.0001) %MON vort_a_mean                  =   8.2300000000001E-05
(PID.TID 0000.0001) %MON vort_a_sd                    =   7.1297555115563E-06
(PID.TID 0000.0001) %MON vort_p_mean                  =   8.3303658536586E-05
(PID.TID 0000.0001) %MON vort_p_sd                    =   1.7411470229822E-05
(PID.TID 0000.0001) %MON surfExpan_theta_mean         =   8.6343955665708E-28
(PID.TID 0000.0001) %MON surfExpan_salt_mean          =   1.3112389431452E-27
(PID.TID 0000.0001) // =======================================================
(PID.TID 0000.0001) // End MONITOR dynamic field statistics
(PID.TID 0000.0001) // =======================================================
 cg2d: Sum(rhs),rhsMax =  -2.44586213645971E-02  1.66322049151558E-10
 cg2d: Sum(rhs),rhsMax =  -2.42719427588296E-02  1.67601253797932E-10
 cg2d: Sum(rhs),rhsMax =  -2.40909510949367E-02  1.68860417189758E-10
 cg2d: Sum(rhs),rhsMax =  -2.39092289700525E-02  1.70143841551605E-10
 cg2d: Sum(rhs),rhsMax =  -2.37338692337566E-02  1.71400964454259E-10
 cg2d: Sum(rhs),rhsMax =  -2.35646890041289E-02  1.72631520525520E-10
 cg2d: Sum(rhs),rhsMax =  -2.33979835272279E-02  1.73861482669994E-10
 cg2d: Sum(rhs),rhsMax =  -2.32331292207520E-02  1.75095144628605E-10
 cg2d: Sum(rhs),rhsMax =  -2.30741433424384E-02  1.76301589026954E-10
 cg2d: Sum(rhs),rhsMax =  -2.29208656712766E-02  1.77480563321622E-10
 cg2d: Sum(rhs),rhsMax =  -2.27672746323203E-02  1.78677871216540E-10
 cg2d: Sum(rhs),rhsMax =  -2.26177799023280E-02  1.79858863135935E-10
 cg2d: Sum(rhs),rhsMax =  -2.24737233656874E-02  1.81011758927996E-10
 cg2d: Sum(rhs),rhsMax =  -2.23341002811463E-02  1.82143366476670E-10
 cg2d: Sum(rhs),rhsMax =  -2.21934628438629E-02  1.83297588898970E-10
 cg2d: Sum(rhs),rhsMax =  -2.20580181025270E-02  1.84423107511739E-10
(PID.TID 0000.0001)      cg2d_init_res =   3.40282511586503E-01
(PID.TID 0000.0001)      cg2d_iters(min,last) =      -1     551
(PID.TID 0000.0001)      cg2d_last_res =   9.23419074282693E-08
(PID.TID 0000.0001) // =======================================================
(PID.TID 0000.0001) // Begin MONITOR dynamic field statistics
(PID.TID 0000.0001) // =======================================================
(PID.TID 0000.0001) %MON time_tsnumber                =                  4976
(PID.TID 0000.0001) %MON time_secondsf                =   2.6870400000000E+07
(PID.TID 0000.0001) %MON dynstat_eta_max              =   2.4663482640215E-09
(PID.TID 0000.0001) %MON dynstat_eta_min              =  -1.9602454687800E-09
(PID.TID 0000.0001) %MON dynstat_eta_mean             =   3.9203886847729E-13
(PID.TID 0000.0001) %MON dynstat_eta_sd               =   9.9084779969084E-10
(PID.TID 0000.0001) %MON dynstat_eta_del2             =   6.7874509514338E-15
(PID.TID 0000.0001) %MON dynstat_uvel_max             =   1.1187214508793E-09
(PID.TID 0000.0001) %MON dynstat_uvel_min             =  -1.0839538453740E-09
(PID.TID 0000.0001) %MON dynstat_uvel_mean            =  -3.6122904259458E-14
(PID.TID 0000.0001) %MON dynstat_uvel_sd              =   3.6833853644077E-10
(PID.TID 0000.0001) %MON dynstat_uvel_del2            =   3.0329458987334E-14
(PID.TID 0000.0001) %MON dynstat_vvel_max             =   1.7888145151240E-09
(PID.TID 0000.0001) %MON dynstat_vvel_min             =  -1.5794603951850E-09
(PID.TID 0000.0001) %MON dynstat_vvel_mean            =   9.0634111894278E-16
(PID.TID 0000.0001) %MON dynstat_vvel_sd              =   6.6410354896461E-10
(PID.TID 0000.0001) %MON dynstat_vvel_del2            =   3.8447605390113E-14
(PID.TID 0000.0001) %MON dynstat_wvel_max             =   3.7337780559032E-15
(PID.TID 0000.0001) %MON dynstat_wvel_min             =  -5.8105746007786E-15
(PID.TID 0000.0001) %MON dynstat_wvel_mean            =  -1.8196123710791E-28
(PID.TID 0000.0001) %MON dynstat_wvel_sd              =   2.4766377019980E-15
(PID.TID 0000.0001) %MON dynstat_wvel_del2            =   1.5852145551045E-20
(PID.TID 0000.0001) %MON dynstat_theta_max            =   2.0000000000000E+01
(PID.TID 0000.0001) %MON dynstat_theta_min            =   2.0000000000000E+01
(PID.TID 0000.0001) %MON dynstat_theta_mean           =   2.0000000000000E+01
(PID.TID 0000.0001) %MON dynstat_theta_sd             =   0.0000000000000E+00
(PID.TID 0000.0001) %MON dynstat_theta_del2           =   0.0000000000000E+00
(PID.TID 0000.0001) %MON dynstat_salt_max             =   3.0000000000000E+01
(PID.TID 0000.0001) %MON dynstat_salt_min             =   3.0000000000000E+01
(PID.TID 0000.0001) %MON dynstat_salt_mean            =   3.0000000000000E+01
(PID.TID 0000.0001) %MON dynstat_salt_sd              =   0.0000000000000E+00
(PID.TID 0000.0001) %MON dynstat_salt_del2            =   0.0000000000000E+00
(PID.TID 0000.0001) %MON trAdv_CFL_u_max              =   1.2188962727650E-09
(PID.TID 0000.0001) %MON trAdv_CFL_v_max              =   1.9387423984865E-09
(PID.TID 0000.0001) %MON trAdv_CFL_w_max              =   4.0712308689295E-15
(PID.TID 0000.0001) %MON advcfl_uvel_max              =   1.2082191669497E-09
(PID.TID 0000.0001) %MON advcfl_vvel_max              =   1.9319196763340E-09
(PID.TID 0000.0001) %MON advcfl_wvel_max              =   1.2550841137682E-14
(PID.TID 0000.0001) %MON advcfl_W_hf_max              =   0.0000000000000E+00
(PID.TID 0000.0001) %MON pe_b_mean                    =   9.6312570504555E-22
(PID.TID 0000.0001) %MON ke_max                       =   1.6468150239473E-18
(PID.TID 0000.0001) %MON ke_mean                      =   2.8718123294248E-19
(PID.TID 0000.0001) %MON ke_vol                       =   7.5645000000000E+15
(PID.TID 0000.0001) %MON vort_r_min                   =  -6.3679496005670E-14
(PID.TID 0000.0001) %MON vort_r_max                   =   6.6044183455634E-14
(PID.TID 0000.0001) %MON vort_a_mean                  =   8.2299999999999E-05
(PID.TID 0000.0001) %MON vort_a_sd                    =   7.1297555115656E-06
(PID.TID 0000.0001) %MON vort_p_mean                  =   8.3303658536585E-05
(PID.TID 0000.0001) %MON vort_p_sd                    =   1.7411470229811E-05
(PID.TID 0000.0001) %MON surfExpan_theta_mean         =  -3.6849986691277E-27
(PID.TID 0000.0001) %MON surfExpan_salt_mean          =  -5.5581564085267E-27
(PID.TID 0000.0001) // =======================================================
(PID.TID 0000.0001) // End MONITOR dynamic field statistics
(PID.TID 0000.0001) // =======================================================
 cg2d: Sum(rhs),rhsMax =  -2.19276359934984E-02  1.85519691223083E-10
 cg2d: Sum(rhs),rhsMax =  -2.17992652154920E-02  1.86612174036543E-10
 cg2d: Sum(rhs),rhsMax =  -2.16718823355164E-02  1.87709042904862E-10
 cg2d: Sum(rhs),rhsMax =  -2.15493482280377E-02  1.88776396657487E-10
 cg2d: Sum(rhs),rhsMax =  -2.14315483810113E-02  1.89814018628405E-10
 cg2d: Sum(rhs),rhsMax =  -2.13136294993585E-02  1.90864176335910E-10
 cg2d: Sum(rhs),rhsMax =  -2.11984656544319E-02  1.91901075347261E-10
 cg2d: Sum(rhs),rhsMax =  -2.10878495367020E-02  1.92907691369271E-10
 cg2d: Sum(rhs),rhsMax =  -2.09816803175051E-02  1.93883822600212E-10
 cg2d: Sum(rhs),rhsMax =  -2.08735104913074E-02  1.94888559847715E-10
 cg2d: Sum(rhs),rhsMax =  -2.07696629529489E-02  1.95862996112162E-10
 cg2d: Sum(rhs),rhsMax =  -2.06700995317288E-02  1.96806426797974E-10
 cg2d: Sum(rhs),rhsMax =  -2.05731473756502E-02  1.97733889416047E-10
 cg2d: Sum(rhs),rhsMax =  -2.04756933961085E-02  1.98675003863447E-10
 cg2d: Sum(rhs),rhsMax =  -2.03823751473063E-02  1.99584614215780E-10
 cg2d: Sum(rhs),rhsMax =  -2.02931102446267E-02  2.00462543564879E-10
(PID.TID 0000.0001)      cg2d_init_res =   3.04199962587617E-01
(PID.TID 0000.0001)      cg2d_iters(min,last) =      -1     549
(PID.TID 0000.0001)      cg2d_last_res =   9.97024947983617E-08
(PID.TID 0000.0001) // =======================================================
(PID.TID 0000.0001) // Begin MONITOR dynamic field statistics
(PID.TID 0000.0001) // =======================================================
(PID.TID 0000.0001) %MON time_tsnumber                =                  4992
(PID.TID 0000.0001) %MON time_secondsf                =   2.6956800000000E+07
(PID.TID 0000.0001) %MON dynstat_eta_max              =   2.4329783108915E-09
(PID.TID 0000.0001) %MON dynstat_eta_min              =  -2.0690772135236E-09
(PID.TID 0000.0001) %MON dynstat_eta_mean             =   3.9203889290299E-13
(PID.TID 0000.0001) %MON dynstat_eta_sd               =   9.7911272402788E-10
(PID.TID 0000.0001) %MON dynstat_eta_del2             =   6.8177875298505E-15
(PID.TID 0000.0001) %MON dynstat_uvel_max             =   9.5338360458964E-10
(PID.TID 0000.0001) %MON dynstat_uvel_min             =  -1.1185154615471E-09
(PID.TID 0000.0001) %MON dynstat_uvel_mean            =  -9.3273955127047E-15
(PID.TID 0000.0001) %MON dynstat_uvel_sd              =   3.5087309862741E-10
(PID.TID 0000.0001) %MON dynstat_uvel_del2            =   3.0844578701827E-14
(PID.TID 0000.0001) %MON dynstat_vvel_max             =   1.6715927839209E-09
(PID.TID 0000.0001) %MON dynstat_vvel_min             =  -1.5396609822047E-09
(PID.TID 0000.0001) %MON dynstat_vvel_mean            =   2.2010651490269E-15
(PID.TID 0000.0001) %MON dynstat_vvel_sd              =   6.6822204348828E-10
(PID.TID 0000.0001) %MON dynstat_vvel_del2            =   3.7107824918275E-14
(PID.TID 0000.0001) %MON dynstat_wvel_max             =   3.1562724397971E-15
(PID.TID 0000.0001) %MON dynstat_wvel_min             =  -5.8524876674071E-15
(PID.TID 0000.0001) %MON dynstat_wvel_mean            =  -1.4594805984586E-29
(PID.TID 0000.0001) %MON dynstat_wvel_sd              =   2.4631278503577E-15
(PID.TID 0000.0001) %MON dynstat_wvel_del2            =   1.5414370786414E-20
(PID.TID 0000.0001) %MON dynstat_theta_max            =   2.0000000000000E+01
(PID.TID 0000.0001) %MON dynstat_theta_min            =   2.0000000000000E+01
(PID.TID 0000.0001) %MON dynstat_theta_mean           =   2.0000000000000E+01
(PID.TID 0000.0001) %MON dynstat_theta_sd             =   0.0000000000000E+00
(PID.TID 0000.0001) %MON dynstat_theta_del2           =   0.0000000000000E+00
(PID.TID 0000.0001) %MON dynstat_salt_max             =   3.0000000000000E+01
(PID.TID 0000.0001) %MON dynstat_salt_min             =   3.0000000000000E+01
(PID.TID 0000.0001) %MON dynstat_salt_mean            =   3.0000000000000E+01
(PID.TID 0000.0001) %MON dynstat_salt_sd              =   0.0000000000000E+00
(PID.TID 0000.0001) %MON dynstat_salt_del2            =   0.0000000000000E+00
(PID.TID 0000.0001) %MON trAdv_CFL_u_max              =   1.1992849743751E-09
(PID.TID 0000.0001) %MON trAdv_CFL_v_max              =   1.8139202247114E-09
(PID.TID 0000.0001) %MON trAdv_CFL_w_max              =   3.4475540733214E-15
(PID.TID 0000.0001) %MON advcfl_uvel_max              =   1.2079966984708E-09
(PID.TID 0000.0001) %MON advcfl_vvel_max              =   1.8053202066346E-09
(PID.TID 0000.0001) %MON advcfl_wvel_max              =   1.2641373361599E-14
(PID.TID 0000.0001) %MON advcfl_W_hf_max              =   0.0000000000000E+00
(PID.TID 0000.0001) %MON pe_b_mean                    =   9.4044730432688E-22
(PID.TID 0000.0001) %MON ke_max                       =   1.4420663974006E-18
(PID.TID 0000.0001) %MON ke_mean                      =   2.8365852551787E-19
(PID.TID 0000.0001) %MON ke_vol                       =   7.5645000000000E+15
(PID.TID 0000.0001) %MON vort_r_min                   =  -7.0363983517847E-14
(PID.TID 0000.0001) %MON vort_r_max                   =   7.3267097149434E-14
(PID.TID 0000.0001) %MON vort_a_mean                  =   8.2299999999999E-05
(PID.TID 0000.0001) %MON vort_a_sd                    =   7.1297555115645E-06
(PID.TID 0000.0001) %MON vort_p_mean                  =   8.3303658536585E-05
(PID.TID 0000.0001) %MON vort_p_sd                    =   1.7411470229794E-05
(PID.TID 0000.0001) %MON surfExpan_theta_mean         =  -2.6256005819500E-28
(PID.TID 0000.0001) %MON surfExpan_salt_mean          =  -3.5631035232203E-28
(PID.TID 0000.0001) // =======================================================
(PID.TID 0000.0001) // End MONITOR dynamic field statistics
(PID.TID 0000.0001) // =======================================================
 cg2d: Sum(rhs),rhsMax =  -2.02047708962665E-02  2.01339007154449E-10
 cg2d: Sum(rhs),rhsMax =  -2.01173723905350E-02  2.02213711074083E-10
 cg2d: Sum(rhs),rhsMax =  -2.00338978851098E-02  2.03056268238857E-10
 cg2d: Sum(rhs),rhsMax =  -1.99542749982914E-02  2.03866517776781E-10
 cg2d: Sum(rhs),rhsMax =  -1.98740676146414E-02  2.04689279159560E-10
 cg2d: Sum(rhs),rhsMax =  -1.97961018335202E-02  2.05495436617230E-10
 cg2d: Sum(rhs),rhsMax =  -1.97218751844734E-02  2.06268854594735E-10
 cg2d: Sum(rhs),rhsMax =  -1.96513242441159E-02  2.07009388867112E-10
 cg2d: Sum(rhs),rhsMax =  -1.95788286095759E-02  2.07775895072148E-10
 cg2d: Sum(rhs),rhsMax =  -1.95097553749406E-02  2.08511515355380E-10
 cg2d: Sum(rhs),rhsMax =  -1.94442603796426E-02  2.09213855103341E-10
 cg2d: Sum(rhs),rhsMax =  -1.93812758278854E-02  2.09893751408762E-10
 cg2d: Sum(rhs),rhsMax =  -1.93171386537831E-02  2.10590646005307E-10
 cg2d: Sum(rhs),rhsMax =  -1.92564915608512E-02  2.11253888661359E-10
 cg2d: Sum(rhs),rhsMax =  -1.91992834576934E-02  2.11883362770474E-10
 cg2d: Sum(rhs),rhsMax =  -1.91433304703401E-02  2.12502665881080E-10
(PID.TID 0000.0001)      cg2d_init_res =   2.79971292247131E-01
(PID.TID 0000.0001)      cg2d_iters(min,last) =      -1     549
(PID.TID 0000.0001)      cg2d_last_res =   9.49391619839969E-08
(PID.TID 0000.0001) // =======================================================
(PID.TID 0000.0001) // Begin MONITOR dynamic field statistics
(PID.TID 0000.0001) // =======================================================
(PID.TID 0000.0001) %MON time_tsnumber                =                  5008
(PID.TID 0000.0001) %MON time_secondsf                =   2.7043200000000E+07
(PID.TID 0000.0001) %MON dynstat_eta_max              =   2.3501852479775E-09
(PID.TID 0000.0001) %MON dynstat_eta_min              =  -2.1543001211203E-09
(PID.TID 0000.0001) %MON dynstat_eta_mean             =   3.9203891827395E-13
(PID.TID 0000.0001) %MON dynstat_eta_sd               =   9.6442466779233E-10
(PID.TID 0000.0001) %MON dynstat_eta_del2             =   6.8487989008879E-15
(PID.TID 0000.0001) %MON dynstat_uvel_max             =   7.8020366706793E-10
(PID.TID 0000.0001) %MON dynstat_uvel_min             =  -1.2430842543184E-09
(PID.TID 0000.0001) %MON dynstat_uvel_mean            =   1.7290655127633E-14
(PID.TID 0000.0001) %MON dynstat_uvel_sd              =   3.3889976465986E-10
(PID.TID 0000.0001) %MON dynstat_uvel_del2            =   3.1439390055623E-14
(PID.TID 0000.0001) %MON dynstat_vvel_max             =   1.5350444154947E-09
(PID.TID 0000.0001) %MON dynstat_vvel_min             =  -1.5930266128818E-09
(PID.TID 0000.0001) %MON dynstat_vvel_mean            =   3.1321529920236E-15
(PID.TID 0000.0001) %MON dynstat_vvel_sd              =   6.6912353299970E-10
(PID.TID 0000.0001) %MON dynstat_vvel_del2            =   3.5331094651256E-14
(PID.TID 0000.0001) %MON dynstat_wvel_max             =   2.9448475752369E-15
(PID.TID 0000.0001) %MON dynstat_wvel_min             =  -5.9462542921496E-15
(PID.TID 0000.0001) %MON dynstat_wvel_mean            =  -3.2070505336488E-29
(PID.TID 0000.0001) %MON dynstat_wvel_sd              =   2.4569080472399E-15
(PID.TID 0000.0001) %MON dynstat_wvel_del2            =   1.4990766794916E-20
(PID.TID 0000.0001) %MON dynstat_theta_max            =   2.0000000000000E+01
(PID.TID 0000.0001) %MON dynstat_theta_min            =   2.0000000000000E+01
(PID.TID 0000.0001) %MON dynstat_theta_mean           =   2.0000000000000E+01
(PID.TID 0000.0001) %MON dynstat_theta_sd             =   0.0000000000000E+00
(PID.TID 0000.0001) %MON dynstat_theta_del2           =   0.0000000000000E+00
(PID.TID 0000.0001) %MON dynstat_salt_max             =   3.0000000000000E+01
(PID.TID 0000.0001) %MON dynstat_salt_min             =   3.0000000000000E+01
(PID.TID 0000.0001) %MON dynstat_salt_mean            =   3.0000000000000E+01
(PID.TID 0000.0001) %MON dynstat_salt_sd              =   0.0000000000000E+00
(PID.TID 0000.0001) %MON dynstat_salt_del2            =   0.0000000000000E+00
(PID.TID 0000.0001) %MON trAdv_CFL_u_max              =   1.3347059148309E-09
(PID.TID 0000.0001) %MON trAdv_CFL_v_max              =   1.7125738042211E-09
(PID.TID 0000.0001) %MON trAdv_CFL_w_max              =   3.1572591879414E-15
(PID.TID 0000.0001) %MON advcfl_uvel_max              =   1.3425309946638E-09
(PID.TID 0000.0001) %MON advcfl_vvel_max              =   1.7204687419123E-09
(PID.TID 0000.0001) %MON advcfl_wvel_max              =   1.2843909271043E-14
(PID.TID 0000.0001) %MON advcfl_W_hf_max              =   0.0000000000000E+00
(PID.TID 0000.0001) %MON pe_b_mean                    =   9.1244290676359E-22
(PID.TID 0000.0001) %MON ke_max                       =   1.2693865421703E-18
(PID.TID 0000.0001) %MON ke_mean                      =   2.8014622263470E-19
(PID.TID 0000.0001) %MON ke_vol                       =   7.5645000000000E+15
(PID.TID 0000.0001) %MON vort_r_min                   =  -7.5730527929725E-14
(PID.TID 0000.0001) %MON vort_r_max                   =   7.7269018903483E-14
(PID.TID 0000.0001) %MON vort_a_mean                  =   8.2299999999999E-05
(PID.TID 0000.0001) %MON vort_a_sd                    =   7.1297555115751E-06
(PID.TID 0000.0001) %MON vort_p_mean                  =   8.3303658536584E-05
(PID.TID 0000.0001) %MON vort_p_sd                    =   1.7411470229777E-05
(PID.TID 0000.0001) %MON surfExpan_theta_mean         =  -6.6063964924509E-28
(PID.TID 0000.0001) %MON surfExpan_salt_mean          =  -9.7329104907397E-28
(PID.TID 0000.0001) // =======================================================
(PID.TID 0000.0001) // End MONITOR dynamic field statistics
(PID.TID 0000.0001) // =======================================================
 cg2d: Sum(rhs),rhsMax =  -1.90873462485371E-02  2.13125948594262E-10
 cg2d: Sum(rhs),rhsMax =  -1.90347254745354E-02  2.13715128078249E-10
 cg2d: Sum(rhs),rhsMax =  -1.89854240506860E-02  2.14270105352624E-10
 cg2d: Sum(rhs),rhsMax =  -1.89362277999660E-02  2.14826779294039E-10
 cg2d: Sum(rhs),rhsMax =  -1.88880386975022E-02  2.15374868480031E-10
 cg2d: Sum(rhs),rhsMax =  -1.88431049075085E-02  2.15888458330828E-10
 cg2d: Sum(rhs),rhsMax =  -1.88013888333666E-02  2.16367467670987E-10
 cg2d: Sum(rhs),rhsMax =  -1.87587161563344E-02  2.16859665466249E-10
 cg2d: Sum(rhs),rhsMax =  -1.87180212898881E-02  2.17331141308922E-10
 cg2d: Sum(rhs),rhsMax =  -1.86804907037825E-02  2.17767777927127E-10
 cg2d: Sum(rhs),rhsMax =  -1.86460928059818E-02  2.18169512211366E-10
 cg2d: Sum(rhs),rhsMax =  -1.86097491570904E-02  2.18595584417554E-10
 cg2d: Sum(rhs),rhsMax =  -1.85763003568584E-02  2.18989192441372E-10
 cg2d: Sum(rhs),rhsMax =  -1.85459406897140E-02  2.19347678462862E-10
 cg2d: Sum(rhs),rhsMax =  -1.85179247647313E-02  2.19679532781908E-10
 cg2d: Sum(rhs),rhsMax =  -1.84884712629991E-02  2.20029499985792E-10
(PID.TID 0000.0001)      cg2d_init_res =   2.65368677855808E-01
(PID.TID 0000.0001)      cg2d_iters(min,last) =      -1     541
(PID.TID 0000.0001)      cg2d_last_res =   9.88961710580882E-08
(PID.TID 0000.0001) // =======================================================
(PID.TID 0000.0001) // Begin MONITOR dynamic field statistics
(PID.TID 0000.0001) // =======================================================
(PID.TID 0000.0001) %MON time_tsnumber                =                  5024
(PID.TID 0000.0001) %MON time_secondsf                =   2.7129600000000E+07
(PID.TID 0000.0001) %MON dynstat_eta_max              =   2.2213067628505E-09
(PID.TID 0000.0001) %MON dynstat_eta_min              =  -2.2119398131359E-09
(PID.TID 0000.0001) %MON dynstat_eta_mean             =   3.9203895146529E-13
(PID.TID 0000.0001) %MON dynstat_eta_sd               =   9.4779630698562E-10
(PID.TID 0000.0001) %MON dynstat_eta_del2             =   6.8640037210185E-15
(PID.TID 0000.0001) %MON dynstat_uvel_max             =   6.1695915793077E-10
(PID.TID 0000.0001) %MON dynstat_uvel_min             =  -1.3487055687171E-09
(PID.TID 0000.0001) %MON dynstat_uvel_mean            =   4.2290755783448E-14
(PID.TID 0000.0001) %MON dynstat_uvel_sd              =   3.3362414255770E-10
(PID.TID 0000.0001) %MON dynstat_uvel_del2            =   3.1921010796699E-14
(PID.TID 0000.0001) %MON dynstat_vvel_max             =   1.3849538686679E-09
(PID.TID 0000.0001) %MON dynstat_vvel_min             =  -1.6970222031720E-09
(PID.TID 0000.0001) %MON dynstat_vvel_mean            =   3.6983943141926E-15
(PID.TID 0000.0001) %MON dynstat_vvel_sd              =   6.6655585851759E-10
(PID.TID 0000.0001) %MON dynstat_vvel_del2            =   3.3235102424862E-14
(PID.TID 0000.0001) %MON dynstat_wvel_max             =   3.2860976759141E-15
(PID.TID 0000.0001) %MON dynstat_wvel_min             =  -6.0754006905861E-15
(PID.TID 0000.0001) %MON dynstat_wvel_mean            =   2.8292645900595E-29
(PID.TID 0000.0001) %MON dynstat_wvel_sd              =   2.4553581802858E-15
(PID.TID 0000.0001) %MON dynstat_wvel_del2            =   1.4623944647781E-20
(PID.TID 0000.0001) %MON dynstat_theta_max            =   2.0000000000000E+01
(PID.TID 0000.0001) %MON dynstat_theta_min            =   2.0000000000000E+01
(PID.TID 0000.0001) %MON dynstat_theta_mean           =   2.0000000000000E+01
(PID.TID 0000.0001) %MON dynstat_theta_sd             =   0.0000000000000E+00
(PID.TID 0000.0001) %MON dynstat_theta_del2           =   0.0000000000000E+00
(PID.TID 0000.0001) %MON dynstat_salt_max             =   3.0000000000000E+01
(PID.TID 0000.0001) %MON dynstat_salt_min             =   3.0000000000000E+01
(PID.TID 0000.0001) %MON dynstat_salt_mean            =   3.0000000000000E+01
(PID.TID 0000.0001) %MON dynstat_salt_sd              =   0.0000000000000E+00
(PID.TID 0000.0001) %MON dynstat_salt_del2            =   0.0000000000000E+00
(PID.TID 0000.0001) %MON trAdv_CFL_u_max              =   1.4502917073590E-09
(PID.TID 0000.0001) %MON trAdv_CFL_v_max              =   1.8264574488843E-09
(PID.TID 0000.0001) %MON trAdv_CFL_w_max              =   3.5263273102049E-15
(PID.TID 0000.0001) %MON advcfl_uvel_max              =   1.4566020142145E-09
(PID.TID 0000.0001) %MON advcfl_vvel_max              =   1.8327839794258E-09
(PID.TID 0000.0001) %MON advcfl_wvel_max              =   1.3122865491666E-14
(PID.TID 0000.0001) %MON advcfl_W_hf_max              =   0.0000000000000E+00
(PID.TID 0000.0001) %MON pe_b_mean                    =   8.8124995135874E-22
(PID.TID 0000.0001) %MON ke_max                       =   1.4423912474448E-18
(PID.TID 0000.0001) %MON ke_mean                      =   2.7667161949552E-19
(PID.TID 0000.0001) %MON ke_vol                       =   7.5645000000000E+15
(PID.TID 0000.0001) %MON vort_r_min                   =  -7.9555643300923E-14
(PID.TID 0000.0001) %MON vort_r_max                   =   7.7927864124935E-14
(PID.TID 0000.0001) %MON vort_a_mean                  =   8.2300000000000E-05
(PID.TID 0000.0001) %MON vort_a_sd                    =   7.1297555115550E-06
(PID.TID 0000.0001) %MON vort_p_mean                  =   8.3303658536586E-05
(PID.TID 0000.0001) %MON vort_p_sd                    =   1.7411470229746E-05
(PID.TID 0000.0001) %MON surfExpan_theta_mean         =   5.5701836157268E-28
(PID.TID 0000.0001) %MON surfExpan_salt_mean          =   8.4105125645619E-28
(PID.TID 0000.0001) // =======================================================
(PID.TID 0000.0001) // End MONITOR dynamic field statistics
(PID.TID 0000.0001) // =======================================================
 cg2d: Sum(rhs),rhsMax =  -1.84620696656484E-02  2.20344153904074E-10
 cg2d: Sum(rhs),rhsMax =  -1.84386970081829E-02  2.20623461046731E-10
 cg2d: Sum(rhs),rhsMax =  -1.84167135863929E-02  2.20886813615972E-10
 cg2d: Sum(rhs),rhsMax =  -1.83942061024768E-02  2.21157096437015E-10
 cg2d: Sum(rhs),rhsMax =  -1.83746993242003E-02  2.21391881088462E-10
 cg2d: Sum(rhs),rhsMax =  -1.83581755410524E-02  2.21591152752969E-10
 cg2d: Sum(rhs),rhsMax =  -1.83421305166006E-02  2.21784994330613E-10
 cg2d: Sum(rhs),rhsMax =  -1.83264474147298E-02  2.21974791447083E-10
 cg2d: Sum(rhs),rhsMax =  -1.83137276846039E-02  2.22128964659169E-10
 cg2d: Sum(rhs),rhsMax =  -1.83039587467980E-02  2.22247517762069E-10
 cg2d: Sum(rhs),rhsMax =  -1.82937894315446E-02  2.22371064027423E-10
 cg2d: Sum(rhs),rhsMax =  -1.82848527403427E-02  2.22479748707405E-10
 cg2d: Sum(rhs),rhsMax =  -1.82788556440943E-02  2.22552743047530E-10
 cg2d: Sum(rhs),rhsMax =  -1.82757905185361E-02  2.22590069578863E-10
 cg2d: Sum(rhs),rhsMax =  -1.82714649925232E-02  2.22642765882380E-10
 cg2d: Sum(rhs),rhsMax =  -1.82692396129426E-02  2.22669887031809E-10
(PID.TID 0000.0001)      cg2d_init_res =   2.59035327024885E-01
(PID.TID 0000.0001)      cg2d_iters(min,last) =      -1     534
(PID.TID 0000.0001)      cg2d_last_res =   9.74051750767515E-08
(PID.TID 0000.0001) // =======================================================
(PID.TID 0000.0001) // Begin MONITOR dynamic field statistics
(PID.TID 0000.0001) // =======================================================
(PID.TID 0000.0001) %MON time_tsnumber                =                  5040
(PID.TID 0000.0001) %MON time_secondsf                =   2.7216000000000E+07
(PID.TID 0000.0001) %MON dynstat_eta_max              =   2.0517259154629E-09
(PID.TID 0000.0001) %MON dynstat_eta_min              =  -2.2392284856854E-09
(PID.TID 0000.0001) %MON dynstat_eta_mean             =   3.9203899173679E-13
(PID.TID 0000.0001) %MON dynstat_eta_sd               =   9.3062255980614E-10
(PID.TID 0000.0001) %MON dynstat_eta_del2             =   6.8512131826092E-15
(PID.TID 0000.0001) %MON dynstat_uvel_max             =   6.6049088427945E-10
(PID.TID 0000.0001) %MON dynstat_uvel_min             =  -1.4295697691841E-09
(PID.TID 0000.0001) %MON dynstat_uvel_mean            =   6.4343558718155E-14
(PID.TID 0000.0001) %MON dynstat_uvel_sd              =   3.3449997804159E-10
(PID.TID 0000.0001) %MON dynstat_uvel_del2            =   3.2140253499187E-14
(PID.TID 0000.0001) %MON dynstat_vvel_max             =   1.3353305722781E-09
(PID.TID 0000.0001) %MON dynstat_vvel_min             =  -1.7786446144628E-09
(PID.TID 0000.0001) %MON dynstat_vvel_mean            =   3.9206287802472E-15
(PID.TID 0000.0001) %MON dynstat_vvel_sd              =   6.6096670148788E-10
(PID.TID 0000.0001) %MON dynstat_vvel_del2            =   3.0969471123711E-14
(PID.TID 0000.0001) %MON dynstat_wvel_max             =   3.6137471924602E-15
(PID.TID 0000.0001) %MON dynstat_wvel_min             =  -6.1681386398504E-15
(PID.TID 0000.0001) %MON dynstat_wvel_mean            =   9.3248983200353E-32
(PID.TID 0000.0001) %MON dynstat_wvel_sd              =   2.4550033330918E-15
(PID.TID 0000.0001) %MON dynstat_wvel_del2            =   1.4335498038173E-20
(PID.TID 0000.0001) %MON dynstat_theta_max            =   2.0000000000000E+01
(PID.TID 0000.0001) %MON dynstat_theta_min            =   2.0000000000000E+01
(PID.TID 0000.0001) %MON dynstat_theta_mean           =   2.0000000000000E+01
(PID.TID 0000.0001) %MON dynstat_theta_sd             =   0.0000000000000E+00
(PID.TID 0000.0001) %MON dynstat_theta_del2           =   0.0000000000000E+00
(PID.TID 0000.0001) %MON dynstat_salt_max             =   3.0000000000000E+01
(PID.TID 0000.0001) %MON dynstat_salt_min             =   3.0000000000000E+01
(PID.TID 0000.0001) %MON dynstat_salt_mean            =   3.0000000000000E+01
(PID.TID 0000.0001) %MON dynstat_salt_sd              =   0.0000000000000E+00
(PID.TID 0000.0001) %MON dynstat_salt_del2            =   0.0000000000000E+00
(PID.TID 0000.0001) %MON trAdv_CFL_u_max              =   1.5393861111609E-09
(PID.TID 0000.0001) %MON trAdv_CFL_v_max              =   1.9162151107293E-09
(PID.TID 0000.0001) %MON trAdv_CFL_w_max              =   3.8812554585765E-15
(PID.TID 0000.0001) %MON advcfl_uvel_max              =   1.5439353507189E-09
(PID.TID 0000.0001) %MON advcfl_vvel_max              =   1.9209361836198E-09
(PID.TID 0000.0001) %MON advcfl_wvel_max              =   1.3323179462077E-14
(PID.TID 0000.0001) %MON advcfl_W_hf_max              =   0.0000000000000E+00
(PID.TID 0000.0001) %MON pe_b_mean                    =   8.4960339096690E-22
(PID.TID 0000.0001) %MON ke_max                       =   1.5946446284426E-18
(PID.TID 0000.0001) %MON ke_mean                      =   2.7326822944219E-19
(PID.TID 0000.0001) %MON ke_vol                       =   7.5645000000000E+15
(PID.TID 0000.0001) %MON vort_r_min                   =  -8.1671617630721E-14
(PID.TID 0000.0001) %MON vort_r_max                   =   7.5324770797753E-14
(PID.TID 0000.0001) %MON vort_a_mean                  =   8.2300000000000E-05
(PID.TID 0000.0001) %MON vort_a_sd                    =   7.1297555115592E-06
(PID.TID 0000.0001) %MON vort_p_mean                  =   8.3303658536585E-05
(PID.TID 0000.0001) %MON vort_p_sd                    =   1.7411470229725E-05
(PID.TID 0000.0001) %MON surfExpan_theta_mean         =   2.0039000097909E-29
(PID.TID 0000.0001) %MON surfExpan_salt_mean          =   4.9005746495584E-29
(PID.TID 0000.0001) // =======================================================
(PID.TID 0000.0001) // End MONITOR dynamic field statistics
(PID.TID 0000.0001) // =======================================================
 cg2d: Sum(rhs),rhsMax =  -1.82699433417717E-02  2.22661311052852E-10
 cg2d: Sum(rhs),rhsMax =  -1.82735286958993E-02  2.22617624735515E-10
 cg2d: Sum(rhs),rhsMax =  -1.82750901309737E-02  2.22598605066390E-10
 cg2d: Sum(rhs),rhsMax =  -1.82795834974766E-02  2.22543888256125E-10
 cg2d: Sum(rhs),rhsMax =  -1.82870087732403E-02  2.22453527265491E-10
 cg2d: Sum(rhs),rhsMax =  -1.82964364523177E-02  2.22338903628747E-10
 cg2d: Sum(rhs),rhsMax =  -1.83047557063270E-02  2.22237854646926E-10
 cg2d: Sum(rhs),rhsMax =  -1.83160181573793E-02  2.22101202511121E-10
 cg2d: Sum(rhs),rhsMax =  -1.83302287385742E-02  2.21929018855220E-10
 cg2d: Sum(rhs),rhsMax =  -1.83455548942718E-02  2.21743617293989E-10
 cg2d: Sum(rhs),rhsMax =  -1.83607125113637E-02  2.21560559131583E-10
 cg2d: Sum(rhs),rhsMax =  -1.83788382391233E-02  2.21342051388444E-10
 cg2d: Sum(rhs),rhsMax =  -1.83999420918971E-02  2.21088184325372E-10
 cg2d: Sum(rhs),rhsMax =  -1.84212538946711E-02  2.20832406156445E-10
 cg2d: Sum(rhs),rhsMax =  -1.84433753828273E-02  2.20567535768066E-10
 cg2d: Sum(rhs),rhsMax =  -1.84685040582198E-02  2.20267428749623E-10
(PID.TID 0000.0001)      cg2d_init_res =   2.60176728690570E-01
(PID.TID 0000.0001)      cg2d_iters(min,last) =      -1     537
(PID.TID 0000.0001)      cg2d_last_res =   9.39839975165885E-08
(PID.TID 0000.0001) // =======================================================
(PID.TID 0000.0001) // Begin MONITOR dynamic field statistics
(PID.TID 0000.0001) // =======================================================
(PID.TID 0000.0001) %MON time_tsnumber                =                  5056
(PID.TID 0000.0001) %MON time_secondsf                =   2.7302400000000E+07
(PID.TID 0000.0001) %MON dynstat_eta_max              =   1.8482115100869E-09
(PID.TID 0000.0001) %MON dynstat_eta_min              =  -2.2349983648438E-09
(PID.TID 0000.0001) %MON dynstat_eta_mean             =   3.9203903078654E-13
(PID.TID 0000.0001) %MON dynstat_eta_sd               =   9.1444582955832E-10
(PID.TID 0000.0001) %MON dynstat_eta_del2             =   6.8035261028250E-15
(PID.TID 0000.0001) %MON dynstat_uvel_max             =   7.4020373473994E-10
(PID.TID 0000.0001) %MON dynstat_uvel_min             =  -1.4825258534402E-09
(PID.TID 0000.0001) %MON dynstat_uvel_mean            =   8.2301824276721E-14
(PID.TID 0000.0001) %MON dynstat_uvel_sd              =   3.3949432239144E-10
(PID.TID 0000.0001) %MON dynstat_uvel_del2            =   3.2011222708137E-14
(PID.TID 0000.0001) %MON dynstat_vvel_max             =   1.3045038683776E-09
(PID.TID 0000.0001) %MON dynstat_vvel_min             =  -1.8332531035079E-09
(PID.TID 0000.0001) %MON dynstat_vvel_mean            =   3.8397334776965E-15
(PID.TID 0000.0001) %MON dynstat_vvel_sd              =   6.5336558823862E-10
(PID.TID 0000.0001) %MON dynstat_vvel_del2            =   2.8697819420003E-14
(PID.TID 0000.0001) %MON dynstat_wvel_max             =   3.9203434089308E-15
(PID.TID 0000.0001) %MON dynstat_wvel_min             =  -6.1868552880817E-15
(PID.TID 0000.0001) %MON dynstat_wvel_mean            =  -1.3187722399704E-29
(PID.TID 0000.0001) %MON dynstat_wvel_sd              =   2.4522550484374E-15
(PID.TID 0000.0001) %MON dynstat_wvel_del2            =   1.4132155295749E-20
(PID.TID 0000.0001) %MON dynstat_theta_max            =   2.0000000000000E+01
(PID.TID 0000.0001) %MON dynstat_theta_min            =   2.0000000000000E+01
(PID.TID 0000.0001) %MON dynstat_theta_mean           =   2.0000000000000E+01
(PID.TID 0000.0001) %MON dynstat_theta_sd             =   0.0000000000000E+00
(PID.TID 0000.0001) %MON dynstat_theta_del2           =   0.0000000000000E+00
(PID.TID 0000.0001) %MON dynstat_salt_max             =   3.0000000000000E+01
(PID.TID 0000.0001) %MON dynstat_salt_min             =   3.0000000000000E+01
(PID.TID 0000.0001) %MON dynstat_salt_mean            =   3.0000000000000E+01
(PID.TID 0000.0001) %MON dynstat_salt_sd              =   0.0000000000000E+00
(PID.TID 0000.0001) %MON dynstat_salt_del2            =   0.0000000000000E+00
(PID.TID 0000.0001) %MON trAdv_CFL_u_max              =   1.5982325221853E-09
(PID.TID 0000.0001) %MON trAdv_CFL_v_max              =   1.9773569136584E-09
(PID.TID 0000.0001) %MON trAdv_CFL_w_max              =   4.2141034185206E-15
(PID.TID 0000.0001) %MON advcfl_uvel_max              =   1.6011279217154E-09
(PID.TID 0000.0001) %MON advcfl_vvel_max              =   1.9799133517885E-09
(PID.TID 0000.0001) %MON advcfl_wvel_max              =   1.3363607422257E-14
(PID.TID 0000.0001) %MON advcfl_W_hf_max              =   0.0000000000000E+00
(PID.TID 0000.0001) %MON pe_b_mean                    =   8.2032331364227E-22
(PID.TID 0000.0001) %MON ke_max                       =   1.7088446429353E-18
(PID.TID 0000.0001) %MON ke_mean                      =   2.6996958015568E-19
(PID.TID 0000.0001) %MON ke_vol                       =   7.5645000000000E+15
(PID.TID 0000.0001) %MON vort_r_min                   =  -8.1974741684226E-14
(PID.TID 0000.0001) %MON vort_r_max                   =   6.9721085933312E-14
(PID.TID 0000.0001) %MON vort_a_mean                  =   8.2299999999999E-05
(PID.TID 0000.0001) %MON vort_a_sd                    =   7.1297555115707E-06
(PID.TID 0000.0001) %MON vort_p_mean                  =   8.3303658536584E-05
(PID.TID 0000.0001) %MON vort_p_sd                    =   1.7411470229708E-05
(PID.TID 0000.0001) %MON surfExpan_theta_mean         =  -2.0579166260584E-28
(PID.TID 0000.0001) %MON surfExpan_salt_mean          =  -2.7559335846543E-28
(PID.TID 0000.0001) // =======================================================
(PID.TID 0000.0001) // End MONITOR dynamic field statistics
(PID.TID 0000.0001) // =======================================================
 cg2d: Sum(rhs),rhsMax =  -1.84966551306970E-02  2.19932193894734E-10
 cg2d: Sum(rhs),rhsMax =  -1.85240718721209E-02  2.19606683447013E-10
 cg2d: Sum(rhs),rhsMax =  -1.85533297852575E-02  2.19260373874339E-10
 cg2d: Sum(rhs),rhsMax =  -1.85856487520511E-02  2.18879099635491E-10
 cg2d: Sum(rhs),rhsMax =  -1.86210494855415E-02  2.18462987662426E-10
 cg2d: Sum(rhs),rhsMax =  -1.86547239413882E-02  2.18068632335518E-10
 cg2d: Sum(rhs),rhsMax =  -1.86913407722542E-02  2.17641431818394E-10
 cg2d: Sum(rhs),rhsMax =  -1.87310882883699E-02  2.17179596679423E-10
 cg2d: Sum(rhs),rhsMax =  -1.87730489149834E-02  2.16694168419758E-10
 cg2d: Sum(rhs),rhsMax =  -1.88141136341493E-02  2.16221201024378E-10
 cg2d: Sum(rhs),rhsMax =  -1.88583655410268E-02  2.15713830541783E-10
 cg2d: Sum(rhs),rhsMax =  -1.89058346620588E-02  2.15172213423685E-10
 cg2d: Sum(rhs),rhsMax =  -1.89544113768493E-02  2.14620767356796E-10
 cg2d: Sum(rhs),rhsMax =  -1.90033472017212E-02  2.14068095293212E-10
 cg2d: Sum(rhs),rhsMax =  -1.90555686285631E-02  2.13481447169412E-10
 cg2d: Sum(rhs),rhsMax =  -1.91111121760670E-02  2.12860997079202E-10
(PID.TID 0000.0001)      cg2d_init_res =   2.68556563494006E-01
(PID.TID 0000.0001)      cg2d_iters(min,last) =      -1     547
(PID.TID 0000.0001)      cg2d_last_res =   9.60433412573697E-08
(PID.TID 0000.0001) // =======================================================
(PID.TID 0000.0001) // Begin MONITOR dynamic field statistics
(PID.TID 0000.0001) // =======================================================
(PID.TID 0000.0001) %MON time_tsnumber                =                  5072
(PID.TID 0000.0001) %MON time_secondsf                =   2.7388800000000E+07
(PID.TID 0000.0001) %MON dynstat_eta_max              =   1.6388792087937E-09
(PID.TID 0000.0001) %MON dynstat_eta_min              =  -2.1999435174419E-09
(PID.TID 0000.0001) %MON dynstat_eta_mean             =   3.9203907674520E-13
(PID.TID 0000.0001) %MON dynstat_eta_sd               =   9.0066946862610E-10
(PID.TID 0000.0001) %MON dynstat_eta_del2             =   6.7194369514522E-15
(PID.TID 0000.0001) %MON dynstat_uvel_max             =   8.0794640794096E-10
(PID.TID 0000.0001) %MON dynstat_uvel_min             =  -1.5080619255186E-09
(PID.TID 0000.0001) %MON dynstat_uvel_mean            =   9.5260805639728E-14
(PID.TID 0000.0001) %MON dynstat_uvel_sd              =   3.4588477250767E-10
(PID.TID 0000.0001) %MON dynstat_uvel_del2            =   3.1517144922449E-14
(PID.TID 0000.0001) %MON dynstat_vvel_max             =   1.2234730180605E-09
(PID.TID 0000.0001) %MON dynstat_vvel_min             =  -1.8593154206311E-09
(PID.TID 0000.0001) %MON dynstat_vvel_mean            =   3.5134969963756E-15
(PID.TID 0000.0001) %MON dynstat_vvel_sd              =   6.4509637474677E-10
(PID.TID 0000.0001) %MON dynstat_vvel_del2            =   2.6576093146937E-14
(PID.TID 0000.0001) %MON dynstat_wvel_max             =   4.1978528136921E-15
(PID.TID 0000.0001) %MON dynstat_wvel_min             =  -6.1159704037306E-15
(PID.TID 0000.0001) %MON dynstat_wvel_mean            =   6.3240599365492E-29
(PID.TID 0000.0001) %MON dynstat_wvel_sd              =   2.4441243268245E-15
(PID.TID 0000.0001) %MON dynstat_wvel_del2            =   1.4015066378185E-20
(PID.TID 0000.0001) %MON dynstat_theta_max            =   2.0000000000000E+01
(PID.TID 0000.0001) %MON dynstat_theta_min            =   2.0000000000000E+01
(PID.TID 0000.0001) %MON dynstat_theta_mean           =   2.0000000000000E+01
(PID.TID 0000.0001) %MON dynstat_theta_sd             =   0.0000000000000E+00
(PID.TID 0000.0001) %MON dynstat_theta_del2           =   0.0000000000000E+00
(PID.TID 0000.0001) %MON dynstat_salt_max             =   3.0000000000000E+01
(PID.TID 0000.0001) %MON dynstat_salt_min             =   3.0000000000000E+01
(PID.TID 0000.0001) %MON dynstat_salt_mean            =   3.0000000000000E+01
(PID.TID 0000.0001) %MON dynstat_salt_sd              =   0.0000000000000E+00
(PID.TID 0000.0001) %MON dynstat_salt_del2            =   0.0000000000000E+00
(PID.TID 0000.0001) %MON trAdv_CFL_u_max              =   1.6278431027970E-09
(PID.TID 0000.0001) %MON trAdv_CFL_v_max              =   2.0071522944176E-09
(PID.TID 0000.0001) %MON trAdv_CFL_w_max              =   4.5162287269418E-15
(PID.TID 0000.0001) %MON advcfl_uvel_max              =   1.6287068795601E-09
(PID.TID 0000.0001) %MON advcfl_vvel_max              =   2.0080606542816E-09
(PID.TID 0000.0001) %MON advcfl_wvel_max              =   1.3210496072058E-14
(PID.TID 0000.0001) %MON advcfl_W_hf_max              =   0.0000000000000E+00
(PID.TID 0000.0001) %MON pe_b_mean                    =   7.9579273814709E-22
(PID.TID 0000.0001) %MON ke_max                       =   1.7756648352730E-18
(PID.TID 0000.0001) %MON ke_mean                      =   2.6680381366771E-19
(PID.TID 0000.0001) %MON ke_vol                       =   7.5645000000000E+15
(PID.TID 0000.0001) %MON vort_r_min                   =  -8.0440523671294E-14
(PID.TID 0000.0001) %MON vort_r_max                   =   6.1529580717108E-14
(PID.TID 0000.0001) %MON vort_a_mean                  =   8.2300000000000E-05
(PID.TID 0000.0001) %MON vort_a_sd                    =   7.1297555115644E-06
(PID.TID 0000.0001) %MON vort_p_mean                  =   8.3303658536585E-05
(PID.TID 0000.0001) %MON vort_p_sd                    =   1.7411470229686E-05
(PID.TID 0000.0001) %MON surfExpan_theta_mean         =   1.2775702722914E-27
(PID.TID 0000.0001) %MON surfExpan_salt_mean          =   1.9424410621804E-27
(PID.TID 0000.0001) // =======================================================
(PID.TID 0000.0001) // End MONITOR dynamic field statistics
(PID.TID 0000.0001) // =======================================================
 cg2d: Sum(rhs),rhsMax =  -1.91665655793329E-02  2.12245141304887E-10
 cg2d: Sum(rhs),rhsMax =  -1.92237511924760E-02  2.11613769238529E-10
 cg2d: Sum(rhs),rhsMax =  -1.92843403988008E-02  2.10948904275443E-10
 cg2d: Sum(rhs),rhsMax =  -1.93483768373994E-02  2.10250737796466E-10
 cg2d: Sum(rhs),rhsMax =  -1.94110111854487E-02  2.09572314178697E-10
 cg2d: Sum(rhs),rhsMax =  -1.94768940089825E-02  2.08863413379017E-10
 cg2d: Sum(rhs),rhsMax =  -1.95463201045291E-02  2.08121557907891E-10
 cg2d: Sum(rhs),rhsMax =  -1.96180548108544E-02  2.07360549032427E-10
 cg2d: Sum(rhs),rhsMax =  -1.96895083366052E-02  2.06608035664760E-10
 cg2d: Sum(rhs),rhsMax =  -1.97646124950211E-02  2.05822940818137E-10
 cg2d: Sum(rhs),rhsMax =  -1.98434238401796E-02  2.05005483279198E-10
 cg2d: Sum(rhs),rhsMax =  -1.99230046936823E-02  2.04186606633831E-10
 cg2d: Sum(rhs),rhsMax =  -2.00041082262225E-02  2.03358765314996E-10
 cg2d: Sum(rhs),rhsMax =  -2.00890442298843E-02  2.02498970695697E-10
 cg2d: Sum(rhs),rhsMax =  -2.01778785922974E-02  2.01607457914837E-10
 cg2d: Sum(rhs),rhsMax =  -2.02657573300764E-02  2.00733225628062E-10
(PID.TID 0000.0001)      cg2d_init_res =   2.84532121344920E-01
(PID.TID 0000.0001)      cg2d_iters(min,last) =      -1     548
(PID.TID 0000.0001)      cg2d_last_res =   9.45588862276234E-08
(PID.TID 0000.0001) // =======================================================
(PID.TID 0000.0001) // Begin MONITOR dynamic field statistics
(PID.TID 0000.0001) // =======================================================
(PID.TID 0000.0001) %MON time_tsnumber                =                  5088
(PID.TID 0000.0001) %MON time_secondsf                =   2.7475200000000E+07
(PID.TID 0000.0001) %MON dynstat_eta_max              =   1.4312281759720E-09
(PID.TID 0000.0001) %MON dynstat_eta_min              =  -2.1386731811286E-09
(PID.TID 0000.0001) %MON dynstat_eta_mean             =   3.9203912019121E-13
(PID.TID 0000.0001) %MON dynstat_eta_sd               =   8.9027364516584E-10
(PID.TID 0000.0001) %MON dynstat_eta_del2             =   6.6023036362730E-15
(PID.TID 0000.0001) %MON dynstat_uvel_max             =   8.6100338635616E-10
(PID.TID 0000.0001) %MON dynstat_uvel_min             =  -1.5013882096206E-09
(PID.TID 0000.0001) %MON dynstat_uvel_mean            =   1.0260436052168E-13
(PID.TID 0000.0001) %MON dynstat_uvel_sd              =   3.5109542316515E-10
(PID.TID 0000.0001) %MON dynstat_uvel_del2            =   3.0707404218318E-14
(PID.TID 0000.0001) %MON dynstat_vvel_max             =   1.2592001990890E-09
(PID.TID 0000.0001) %MON dynstat_vvel_min             =  -1.8554144884298E-09
(PID.TID 0000.0001) %MON dynstat_vvel_mean            =   3.0125987750122E-15
(PID.TID 0000.0001) %MON dynstat_vvel_sd              =   6.3754615454490E-10
(PID.TID 0000.0001) %MON dynstat_vvel_del2            =   2.4727997410283E-14
(PID.TID 0000.0001) %MON dynstat_wvel_max             =   4.4405963493810E-15
(PID.TID 0000.0001) %MON dynstat_wvel_min             =  -5.9500256038847E-15
(PID.TID 0000.0001) %MON dynstat_wvel_mean            =   1.4595646959699E-28
(PID.TID 0000.0001) %MON dynstat_wvel_sd              =   2.4287716870532E-15
(PID.TID 0000.0001) %MON dynstat_wvel_del2            =   1.3956156777292E-20
(PID.TID 0000.0001) %MON dynstat_theta_max            =   2.0000000000000E+01
(PID.TID 0000.0001) %MON dynstat_theta_min            =   2.0000000000000E+01
(PID.TID 0000.0001) %MON dynstat_theta_mean           =   2.0000000000000E+01
(PID.TID 0000.0001) %MON dynstat_theta_sd             =   0.0000000000000E+00
(PID.TID 0000.0001) %MON dynstat_theta_del2           =   0.0000000000000E+00
(PID.TID 0000.0001) %MON dynstat_salt_max             =   3.0000000000000E+01
(PID.TID 0000.0001) %MON dynstat_salt_min             =   3.0000000000000E+01
(PID.TID 0000.0001) %MON dynstat_salt_mean            =   3.0000000000000E+01
(PID.TID 0000.0001) %MON dynstat_salt_sd              =   0.0000000000000E+00
(PID.TID 0000.0001) %MON dynstat_salt_del2            =   0.0000000000000E+00
(PID.TID 0000.0001) %MON trAdv_CFL_u_max              =   1.6230538637371E-09
(PID.TID 0000.0001) %MON trAdv_CFL_v_max              =   2.0048115579089E-09
(PID.TID 0000.0001) %MON trAdv_CFL_w_max              =   4.7807478173234E-15
(PID.TID 0000.0001) %MON advcfl_uvel_max              =   1.6214992663902E-09
(PID.TID 0000.0001) %MON advcfl_vvel_max              =   2.0038476475042E-09
(PID.TID 0000.0001) %MON advcfl_wvel_max              =   1.2852055304391E-14
(PID.TID 0000.0001) %MON advcfl_W_hf_max              =   0.0000000000000E+00
(PID.TID 0000.0001) %MON pe_b_mean                    =   7.7752815794906E-22
(PID.TID 0000.0001) %MON ke_max                       =   1.7870671001010E-18
(PID.TID 0000.0001) %MON ke_mean                      =   2.6378985963498E-19
(PID.TID 0000.0001) %MON ke_vol                       =   7.5645000000000E+15
(PID.TID 0000.0001) %MON vort_r_min                   =  -7.7100330650469E-14
(PID.TID 0000.0001) %MON vort_r_max                   =   5.1291900087195E-14
(PID.TID 0000.0001) %MON vort_a_mean                  =   8.2300000000001E-05
(PID.TID 0000.0001) %MON vort_a_sd                    =   7.1297555115540E-06
(PID.TID 0000.0001) %MON vort_p_mean                  =   8.3303658536586E-05
(PID.TID 0000.0001) %MON vort_p_sd                    =   1.7411470229666E-05
(PID.TID 0000.0001) %MON surfExpan_theta_mean         =   2.9176718987251E-27
(PID.TID 0000.0001) %MON surfExpan_salt_mean          =   4.3753029823515E-27
(PID.TID 0000.0001) // =======================================================
(PID.TID 0000.0001) // End MONITOR dynamic field statistics
(PID.TID 0000.0001) // =======================================================
 cg2d: Sum(rhs),rhsMax =  -2.03571895299067E-02  1.99831654795957E-10
 cg2d: Sum(rhs),rhsMax =  -2.04526658355162E-02  1.98898810325940E-10
 cg2d: Sum(rhs),rhsMax =  -2.05506140919264E-02  1.97950821578141E-10
 cg2d: Sum(rhs),rhsMax =  -2.06489553422722E-02  1.97008077037770E-10
 cg2d: Sum(rhs),rhsMax =  -2.07515026633792E-02  1.96034527847101E-10
 cg2d: Sum(rhs),rhsMax =  -2.08583397790957E-02  1.95030434572859E-10
 cg2d: Sum(rhs),rhsMax =  -2.09655552714857E-02  1.94033073072463E-10
 cg2d: Sum(rhs),rhsMax =  -2.10756501239064E-02  1.93019486514283E-10
 cg2d: Sum(rhs),rhsMax =  -2.11902228564528E-02  1.91975858061447E-10
 cg2d: Sum(rhs),rhsMax =  -2.13083324547162E-02  1.90911760844596E-10
 cg2d: Sum(rhs),rhsMax =  -2.14265042124960E-02  1.89858844235431E-10
 cg2d: Sum(rhs),rhsMax =  -2.15493629266732E-02  1.88776410689548E-10
 cg2d: Sum(rhs),rhsMax =  -2.16770147732557E-02  1.87664745006983E-10
 cg2d: Sum(rhs),rhsMax =  -2.18056096145444E-02  1.86558027625855E-10
 cg2d: Sum(rhs),rhsMax =  -2.19373661437110E-02  1.85437557605219E-10
 cg2d: Sum(rhs),rhsMax =  -2.20741589363401E-02  1.84288411443392E-10
(PID.TID 0000.0001)      cg2d_init_res =   3.09459486227650E-01
(PID.TID 0000.0001)      cg2d_iters(min,last) =      -1     547
(PID.TID 0000.0001)      cg2d_last_res =   9.29706342026117E-08
(PID.TID 0000.0001) // =======================================================
(PID.TID 0000.0001) // Begin MONITOR dynamic field statistics
(PID.TID 0000.0001) // =======================================================
(PID.TID 0000.0001) %MON time_tsnumber                =                  5104
(PID.TID 0000.0001) %MON time_secondsf                =   2.7561600000000E+07
(PID.TID 0000.0001) %MON dynstat_eta_max              =   1.2170574026252E-09
(PID.TID 0000.0001) %MON dynstat_eta_min              =  -2.2025260076468E-09
(PID.TID 0000.0001) %MON dynstat_eta_mean             =   3.9203920807132E-13
(PID.TID 0000.0001) %MON dynstat_eta_sd               =   8.8360612078875E-10
(PID.TID 0000.0001) %MON dynstat_eta_del2             =   6.4593705042887E-15
(PID.TID 0000.0001) %MON dynstat_uvel_max             =   8.9238154146898E-10
(PID.TID 0000.0001) %MON dynstat_uvel_min             =  -1.4625046511386E-09
(PID.TID 0000.0001) %MON dynstat_uvel_mean            =   1.0403488918408E-13
(PID.TID 0000.0001) %MON dynstat_uvel_sd              =   3.5324528456967E-10
(PID.TID 0000.0001) %MON dynstat_uvel_del2            =   2.9687819710494E-14
(PID.TID 0000.0001) %MON dynstat_vvel_max             =   1.2976707097457E-09
(PID.TID 0000.0001) %MON dynstat_vvel_min             =  -1.8214931540437E-09
(PID.TID 0000.0001) %MON dynstat_vvel_mean            =   2.4158944648059E-15
(PID.TID 0000.0001) %MON dynstat_vvel_sd              =   6.3183779679950E-10
(PID.TID 0000.0001) %MON dynstat_vvel_del2            =   2.3222376182340E-14
(PID.TID 0000.0001) %MON dynstat_wvel_max             =   4.6448874689575E-15
(PID.TID 0000.0001) %MON dynstat_wvel_min             =  -5.6915850496497E-15
(PID.TID 0000.0001) %MON dynstat_wvel_mean            =   4.8911621869889E-29
(PID.TID 0000.0001) %MON dynstat_wvel_sd              =   2.4058221517382E-15
(PID.TID 0000.0001) %MON dynstat_wvel_del2            =   1.3936685924701E-20
(PID.TID 0000.0001) %MON dynstat_theta_max            =   2.0000000000000E+01
(PID.TID 0000.0001) %MON dynstat_theta_min            =   2.0000000000000E+01
(PID.TID 0000.0001) %MON dynstat_theta_mean           =   2.0000000000000E+01
(PID.TID 0000.0001) %MON dynstat_theta_sd             =   0.0000000000000E+00
(PID.TID 0000.0001) %MON dynstat_theta_del2           =   0.0000000000000E+00
(PID.TID 0000.0001) %MON dynstat_salt_max             =   3.0000000000000E+01
(PID.TID 0000.0001) %MON dynstat_salt_min             =   3.0000000000000E+01
(PID.TID 0000.0001) %MON dynstat_salt_mean            =   3.0000000000000E+01
(PID.TID 0000.0001) %MON dynstat_salt_sd              =   0.0000000000000E+00
(PID.TID 0000.0001) %MON dynstat_salt_del2            =   0.0000000000000E+00
(PID.TID 0000.0001) %MON trAdv_CFL_u_max              =   1.5832232476916E-09
(PID.TID 0000.0001) %MON trAdv_CFL_v_max              =   1.9703005273158E-09
(PID.TID 0000.0001) %MON trAdv_CFL_w_max              =   5.0038823678600E-15
(PID.TID 0000.0001) %MON advcfl_uvel_max              =   1.5795050232296E-09
(PID.TID 0000.0001) %MON advcfl_vvel_max              =   1.9672126063672E-09
(PID.TID 0000.0001) %MON advcfl_wvel_max              =   1.2293823707243E-14
(PID.TID 0000.0001) %MON advcfl_W_hf_max              =   0.0000000000000E+00
(PID.TID 0000.0001) %MON pe_b_mean                    =   7.6592549171268E-22
(PID.TID 0000.0001) %MON ke_max                       =   1.7422987973260E-18
(PID.TID 0000.0001) %MON ke_mean                      =   2.6093557850455E-19
(PID.TID 0000.0001) %MON ke_vol                       =   7.5645000000000E+15
(PID.TID 0000.0001) %MON vort_r_min                   =  -7.2062219117147E-14
(PID.TID 0000.0001) %MON vort_r_max                   =   3.9634751356489E-14
(PID.TID 0000.0001) %MON vort_a_mean                  =   8.2300000000000E-05
(PID.TID 0000.0001) %MON vort_a_sd                    =   7.1297555115607E-06
(PID.TID 0000.0001) %MON vort_p_mean                  =   8.3303658536586E-05
(PID.TID 0000.0001) %MON vort_p_sd                    =   1.7411470229655E-05
(PID.TID 0000.0001) %MON surfExpan_theta_mean         =   9.7311370907394E-28
(PID.TID 0000.0001) %MON surfExpan_salt_mean          =   1.4612390498306E-27
(PID.TID 0000.0001) // =======================================================
(PID.TID 0000.0001) // End MONITOR dynamic field statistics
(PID.TID 0000.0001) // =======================================================
 cg2d: Sum(rhs),rhsMax =  -2.22146755954283E-02  1.83122718338566E-10
 cg2d: Sum(rhs),rhsMax =  -2.23560107031562E-02  1.81965018287237E-10
 cg2d: Sum(rhs),rhsMax =  -2.25026529720923E-02  1.80779219178997E-10
 cg2d: Sum(rhs),rhsMax =  -2.26547376819763E-02  1.79565628480268E-10
 cg2d: Sum(rhs),rhsMax =  -2.28072666715507E-02  1.78364751759553E-10
 cg2d: Sum(rhs),rhsMax =  -2.29645491396405E-02  1.77143163599701E-10
 cg2d: Sum(rhs),rhsMax =  -2.31275967094108E-02  1.75894389520165E-10
 cg2d: Sum(rhs),rhsMax =  -2.32933183552876E-02  1.74642941033503E-10
 cg2d: Sum(rhs),rhsMax =  -2.34621158231496E-02  1.73386463197051E-10
 cg2d: Sum(rhs),rhsMax =  -2.36370257370892E-02  1.72103424387794E-10
 cg2d: Sum(rhs),rhsMax =  -2.38165724657735E-02  1.70805976607826E-10
 cg2d: Sum(rhs),rhsMax =  -2.39978749267495E-02  1.69515543110072E-10
 cg2d: Sum(rhs),rhsMax =  -2.41856851585862E-02  1.68199192148126E-10
 cg2d: Sum(rhs),rhsMax =  -2.43797310152397E-02  1.66860439263446E-10
 cg2d: Sum(rhs),rhsMax =  -2.45746395766226E-02  1.65537018075304E-10
 cg2d: Sum(rhs),rhsMax =  -2.47765004654999E-02  1.64188340484846E-10
(PID.TID 0000.0001)      cg2d_init_res =   3.46007637455185E-01
(PID.TID 0000.0001)      cg2d_iters(min,last) =      -1     547
(PID.TID 0000.0001)      cg2d_last_res =   8.83710242321833E-08
(PID.TID 0000.0001) // =======================================================
(PID.TID 0000.0001) // Begin MONITOR dynamic field statistics
(PID.TID 0000.0001) // =======================================================
(PID.TID 0000.0001) %MON time_tsnumber                =                  5120
(PID.TID 0000.0001) %MON time_secondsf                =   2.7648000000000E+07
(PID.TID 0000.0001) %MON dynstat_eta_max              =   1.0879064936118E-09
(PID.TID 0000.0001) %MON dynstat_eta_min              =  -2.3167472720551E-09
(PID.TID 0000.0001) %MON dynstat_eta_mean             =   3.9203927143127E-13
(PID.TID 0000.0001) %MON dynstat_eta_sd               =   8.8031337974617E-10
(PID.TID 0000.0001) %MON dynstat_eta_del2             =   6.3004878384432E-15
(PID.TID 0000.0001) %MON dynstat_uvel_max             =   9.0362472776978E-10
(PID.TID 0000.0001) %MON dynstat_uvel_min             =  -1.3922045133107E-09
(PID.TID 0000.0001) %MON dynstat_uvel_mean            =   9.9585372672421E-14
(PID.TID 0000.0001) %MON dynstat_uvel_sd              =   3.5138863874047E-10
(PID.TID 0000.0001) %MON dynstat_uvel_del2            =   2.8603456986342E-14
(PID.TID 0000.0001) %MON dynstat_vvel_max             =   1.3165893409047E-09
(PID.TID 0000.0001) %MON dynstat_vvel_min             =  -1.7591004374790E-09
(PID.TID 0000.0001) %MON dynstat_vvel_mean            =   1.8053355807139E-15
(PID.TID 0000.0001) %MON dynstat_vvel_sd              =   6.2857761938393E-10
(PID.TID 0000.0001) %MON dynstat_vvel_del2            =   2.2061912233450E-14
(PID.TID 0000.0001) %MON dynstat_wvel_max             =   4.8146790716797E-15
(PID.TID 0000.0001) %MON dynstat_wvel_min             =  -5.3502135247130E-15
(PID.TID 0000.0001) %MON dynstat_wvel_mean            =   6.5434627114969E-29
(PID.TID 0000.0001) %MON dynstat_wvel_sd              =   2.3764197735239E-15
(PID.TID 0000.0001) %MON dynstat_wvel_del2            =   1.3919313184073E-20
(PID.TID 0000.0001) %MON dynstat_theta_max            =   2.0000000000000E+01
(PID.TID 0000.0001) %MON dynstat_theta_min            =   2.0000000000000E+01
(PID.TID 0000.0001) %MON dynstat_theta_mean           =   2.0000000000000E+01
(PID.TID 0000.0001) %MON dynstat_theta_sd             =   0.0000000000000E+00
(PID.TID 0000.0001) %MON dynstat_theta_del2           =   0.0000000000000E+00
(PID.TID 0000.0001) %MON dynstat_salt_max             =   3.0000000000000E+01
(PID.TID 0000.0001) %MON dynstat_salt_min             =   3.0000000000000E+01
(PID.TID 0000.0001) %MON dynstat_salt_mean            =   3.0000000000000E+01
(PID.TID 0000.0001) %MON dynstat_salt_sd              =   0.0000000000000E+00
(PID.TID 0000.0001) %MON dynstat_salt_del2            =   0.0000000000000E+00
(PID.TID 0000.0001) %MON trAdv_CFL_u_max              =   1.5090871059634E-09
(PID.TID 0000.0001) %MON trAdv_CFL_v_max              =   1.9049252891883E-09
(PID.TID 0000.0001) %MON trAdv_CFL_w_max              =   5.1888405834033E-15
(PID.TID 0000.0001) %MON advcfl_uvel_max              =   1.5035808743756E-09
(PID.TID 0000.0001) %MON advcfl_vvel_max              =   1.8998284724773E-09
(PID.TID 0000.0001) %MON advcfl_wvel_max              =   1.1556461213380E-14
(PID.TID 0000.0001) %MON advcfl_W_hf_max              =   0.0000000000000E+00
(PID.TID 0000.0001) %MON pe_b_mean                    =   7.6022771605006E-22
(PID.TID 0000.0001) %MON ke_max                       =   1.6453313082820E-18
(PID.TID 0000.0001) %MON ke_mean                      =   2.5823787234137E-19
(PID.TID 0000.0001) %MON ke_vol                       =   7.5645000000000E+15
(PID.TID 0000.0001) %MON vort_r_min                   =  -6.5506165228435E-14
(PID.TID 0000.0001) %MON vort_r_max                   =   3.6978330603427E-14
(PID.TID 0000.0001) %MON vort_a_mean                  =   8.2300000000001E-05
(PID.TID 0000.0001) %MON vort_a_sd                    =   7.1297555115582E-06
(PID.TID 0000.0001) %MON vort_p_mean                  =   8.3303658536586E-05
(PID.TID 0000.0001) %MON vort_p_sd                    =   1.7411470229647E-05
(PID.TID 0000.0001) %MON surfExpan_theta_mean         =   1.3084920627186E-27
(PID.TID 0000.0001) %MON surfExpan_salt_mean          =   1.9617079264376E-27
(PID.TID 0000.0001) // =======================================================
(PID.TID 0000.0001) // End MONITOR dynamic field statistics
(PID.TID 0000.0001) // =======================================================
 cg2d: Sum(rhs),rhsMax =  -2.49855277544993E-02  1.62814749408352E-10
 cg2d: Sum(rhs),rhsMax =  -2.51955344043547E-02  1.61457674478281E-10
 cg2d: Sum(rhs),rhsMax =  -2.54127380290545E-02  1.60077687943320E-10
 cg2d: Sum(rhs),rhsMax =  -2.56376333261552E-02  1.58673472567635E-10
 cg2d: Sum(rhs),rhsMax =  -2.58640458271569E-02  1.57284451798294E-10
 cg2d: Sum(rhs),rhsMax =  -2.60980463430620E-02  1.55874205300954E-10
 cg2d: Sum(rhs),rhsMax =  -2.63402903217768E-02  1.54440674310333E-10
 cg2d: Sum(rhs),rhsMax =  -2.65840711411198E-02  1.53024423687085E-10
 cg2d: Sum(rhs),rhsMax =  -2.68365090899695E-02  1.51584996496191E-10
 cg2d: Sum(rhs),rhsMax =  -2.70966288423092E-02  1.50129823515846E-10
 cg2d: Sum(rhs),rhsMax =  -2.73599767131628E-02  1.48684778499553E-10
 cg2d: Sum(rhs),rhsMax =  -2.76327077099536E-02  1.47217279288788E-10
 cg2d: Sum(rhs),rhsMax =  -2.79117475947024E-02  1.45745514732728E-10
 cg2d: Sum(rhs),rhsMax =  -2.81966664079191E-02  1.44272799463421E-10
 cg2d: Sum(rhs),rhsMax =  -2.84917954271175E-02  1.42778365332787E-10
 cg2d: Sum(rhs),rhsMax =  -2.87908965156059E-02  1.41295077502913E-10
(PID.TID 0000.0001)      cg2d_init_res =   3.99160723361296E-01
(PID.TID 0000.0001)      cg2d_iters(min,last) =      -1     548
(PID.TID 0000.0001)      cg2d_last_res =   9.91764382770122E-08
(PID.TID 0000.0001) // =======================================================
(PID.TID 0000.0001) // Begin MONITOR dynamic field statistics
(PID.TID 0000.0001) // =======================================================
(PID.TID 0000.0001) %MON time_tsnumber                =                  5136
(PID.TID 0000.0001) %MON time_secondsf                =   2.7734400000000E+07
(PID.TID 0000.0001) %MON dynstat_eta_max              =   1.2091575667947E-09
(PID.TID 0000.0001) %MON dynstat_eta_min              =  -2.3954933615295E-09
(PID.TID 0000.0001) %MON dynstat_eta_mean             =   3.9203922253897E-13
(PID.TID 0000.0001) %MON dynstat_eta_sd               =   8.7943730289150E-10
(PID.TID 0000.0001) %MON dynstat_eta_del2             =   6.1366473272013E-15
(PID.TID 0000.0001) %MON dynstat_uvel_max             =   8.9116086454552E-10
(PID.TID 0000.0001) %MON dynstat_uvel_min             =  -1.2953604288179E-09
(PID.TID 0000.0001) %MON dynstat_uvel_mean            =   8.9613144289803E-14
(PID.TID 0000.0001) %MON dynstat_uvel_sd              =   3.4555242484389E-10
(PID.TID 0000.0001) %MON dynstat_uvel_del2            =   2.7612098815345E-14
(PID.TID 0000.0001) %MON dynstat_vvel_max             =   1.3396007297398E-09
(PID.TID 0000.0001) %MON dynstat_vvel_min             =  -1.6714676127822E-09
(PID.TID 0000.0001) %MON dynstat_vvel_mean            =   1.2607735668086E-15
(PID.TID 0000.0001) %MON dynstat_vvel_sd              =   6.2773367924828E-10
(PID.TID 0000.0001) %MON dynstat_vvel_del2            =   2.1191719093274E-14
(PID.TID 0000.0001) %MON dynstat_wvel_max             =   4.9722246685258E-15
(PID.TID 0000.0001) %MON dynstat_wvel_min             =  -4.9385456046824E-15
(PID.TID 0000.0001) %MON dynstat_wvel_mean            =   9.3998748166913E-30
(PID.TID 0000.0001) %MON dynstat_wvel_sd              =   2.3430228065469E-15
(PID.TID 0000.0001) %MON dynstat_wvel_del2            =   1.3883675860079E-20
(PID.TID 0000.0001) %MON dynstat_theta_max            =   2.0000000000000E+01
(PID.TID 0000.0001) %MON dynstat_theta_min            =   2.0000000000000E+01
(PID.TID 0000.0001) %MON dynstat_theta_mean           =   2.0000000000000E+01
(PID.TID 0000.0001) %MON dynstat_theta_sd             =   0.0000000000000E+00
(PID.TID 0000.0001) %MON dynstat_theta_del2           =   0.0000000000000E+00
(PID.TID 0000.0001) %MON dynstat_salt_max             =   3.0000000000000E+01
(PID.TID 0000.0001) %MON dynstat_salt_min             =   3.0000000000000E+01
(PID.TID 0000.0001) %MON dynstat_salt_mean            =   3.0000000000000E+01
(PID.TID 0000.0001) %MON dynstat_salt_sd              =   0.0000000000000E+00
(PID.TID 0000.0001) %MON dynstat_salt_del2            =   0.0000000000000E+00
(PID.TID 0000.0001) %MON trAdv_CFL_u_max              =   1.4063637926921E-09
(PID.TID 0000.0001) %MON trAdv_CFL_v_max              =   1.8115731834040E-09
(PID.TID 0000.0001) %MON trAdv_CFL_w_max              =   5.3586268140282E-15
(PID.TID 0000.0001) %MON advcfl_uvel_max              =   1.3989892631233E-09
(PID.TID 0000.0001) %MON advcfl_vvel_max              =   1.8051850218048E-09
(PID.TID 0000.0001) %MON advcfl_wvel_max              =   1.0740005284016E-14
(PID.TID 0000.0001) %MON advcfl_W_hf_max              =   0.0000000000000E+00
(PID.TID 0000.0001) %MON pe_b_mean                    =   7.5871533106701E-22
(PID.TID 0000.0001) %MON ke_max                       =   1.5044795192172E-18
(PID.TID 0000.0001) %MON ke_mean                      =   2.5568441933028E-19
(PID.TID 0000.0001) %MON ke_vol                       =   7.5645000000000E+15
(PID.TID 0000.0001) %MON vort_r_min                   =  -5.7697670162406E-14
(PID.TID 0000.0001) %MON vort_r_max                   =   3.8206768777251E-14
(PID.TID 0000.0001) %MON vort_a_mean                  =   8.2299999999999E-05
(PID.TID 0000.0001) %MON vort_a_sd                    =   7.1297555115708E-06
(PID.TID 0000.0001) %MON vort_p_mean                  =   8.3303658536584E-05
(PID.TID 0000.0001) %MON vort_p_sd                    =   1.7411470229647E-05
(PID.TID 0000.0001) %MON surfExpan_theta_mean         =   1.8323994926364E-28
(PID.TID 0000.0001) %MON surfExpan_salt_mean          =   2.7372561974374E-28
(PID.TID 0000.0001) // =======================================================
(PID.TID 0000.0001) // End MONITOR dynamic field statistics
(PID.TID 0000.0001) // =======================================================
 cg2d: Sum(rhs),rhsMax =  -2.90996627815421E-02  1.39795844478536E-10
 cg2d: Sum(rhs),rhsMax =  -2.94165566131247E-02  1.38289874271059E-10
 cg2d: Sum(rhs),rhsMax =  -2.97399950462985E-02  1.36785896943086E-10
 cg2d: Sum(rhs),rhsMax =  -3.00748473681040E-02  1.35262926875562E-10
 cg2d: Sum(rhs),rhsMax =  -3.04140719527616E-02  1.33754265811455E-10
 cg2d: Sum(rhs),rhsMax =  -3.07657383150871E-02  1.32225393287983E-10
 cg2d: Sum(rhs),rhsMax =  -3.11232201071090E-02  1.30706649921918E-10
 cg2d: Sum(rhs),rhsMax =  -3.14926074672928E-02  1.29173547329760E-10
 cg2d: Sum(rhs),rhsMax =  -3.18688117225881E-02  1.27648681727481E-10
 cg2d: Sum(rhs),rhsMax =  -3.22572808830729E-02  1.26111429018755E-10
 cg2d: Sum(rhs),rhsMax =  -3.26522631589536E-02  1.24585905561476E-10
 cg2d: Sum(rhs),rhsMax =  -3.30597251102059E-02  1.23050380675165E-10
 cg2d: Sum(rhs),rhsMax =  -3.34750327643395E-02  1.21523756938911E-10
 cg2d: Sum(rhs),rhsMax =  -3.39005472499447E-02  1.19998408868081E-10
 cg2d: Sum(rhs),rhsMax =  -3.41410312381306E-02  1.19153158761805E-10
 cg2d: Sum(rhs),rhsMax =  -3.38907345726251E-02  1.20033152242242E-10
(PID.TID 0000.0001)      cg2d_init_res =   4.64735309264922E-01
(PID.TID 0000.0001)      cg2d_iters(min,last) =      -1     552
(PID.TID 0000.0001)      cg2d_last_res =   9.62042985108156E-08
(PID.TID 0000.0001) // =======================================================
(PID.TID 0000.0001) // Begin MONITOR dynamic field statistics
(PID.TID 0000.0001) // =======================================================
(PID.TID 0000.0001) %MON time_tsnumber                =                  5152
(PID.TID 0000.0001) %MON time_secondsf                =   2.7820800000000E+07
(PID.TID 0000.0001) %MON dynstat_eta_max              =   1.3161043082290E-09
(PID.TID 0000.0001) %MON dynstat_eta_min              =  -2.4334991933825E-09
(PID.TID 0000.0001) %MON dynstat_eta_mean             =   3.9203919913410E-13
(PID.TID 0000.0001) %MON dynstat_eta_sd               =   8.7964648761955E-10
(PID.TID 0000.0001) %MON dynstat_eta_del2             =   5.9784701060316E-15
(PID.TID 0000.0001) %MON dynstat_uvel_max             =   8.5448657209480E-10
(PID.TID 0000.0001) %MON dynstat_uvel_min             =  -1.1723142837735E-09
(PID.TID 0000.0001) %MON dynstat_uvel_mean            =   7.4775910869355E-14
(PID.TID 0000.0001) %MON dynstat_uvel_sd              =   3.3665201016969E-10
(PID.TID 0000.0001) %MON dynstat_uvel_del2            =   2.6848746751334E-14
(PID.TID 0000.0001) %MON dynstat_vvel_max             =   1.4641485152864E-09
(PID.TID 0000.0001) %MON dynstat_vvel_min             =  -1.5684498212117E-09
(PID.TID 0000.0001) %MON dynstat_vvel_mean            =   8.5495991613639E-16
(PID.TID 0000.0001) %MON dynstat_vvel_sd              =   6.2868571890368E-10
(PID.TID 0000.0001) %MON dynstat_vvel_del2            =   2.0526794215016E-14
(PID.TID 0000.0001) %MON dynstat_wvel_max             =   5.2017483823108E-15
(PID.TID 0000.0001) %MON dynstat_wvel_min             =  -4.4719142588967E-15
(PID.TID 0000.0001) %MON dynstat_wvel_mean            =   4.1288416715991E-29
(PID.TID 0000.0001) %MON dynstat_wvel_sd              =   2.3089598530200E-15
(PID.TID 0000.0001) %MON dynstat_wvel_del2            =   1.3814075973109E-20
(PID.TID 0000.0001) %MON dynstat_theta_max            =   2.0000000000000E+01
(PID.TID 0000.0001) %MON dynstat_theta_min            =   2.0000000000000E+01
(PID.TID 0000.0001) %MON dynstat_theta_mean           =   2.0000000000000E+01
(PID.TID 0000.0001) %MON dynstat_theta_sd             =   0.0000000000000E+00
(PID.TID 0000.0001) %MON dynstat_theta_del2           =   0.0000000000000E+00
(PID.TID 0000.0001) %MON dynstat_salt_max             =   3.0000000000000E+01
(PID.TID 0000.0001) %MON dynstat_salt_min             =   3.0000000000000E+01
(PID.TID 0000.0001) %MON dynstat_salt_mean            =   3.0000000000000E+01
(PID.TID 0000.0001) %MON dynstat_salt_sd              =   0.0000000000000E+00
(PID.TID 0000.0001) %MON dynstat_salt_del2            =   0.0000000000000E+00
(PID.TID 0000.0001) %MON trAdv_CFL_u_max              =   1.2752207680707E-09
(PID.TID 0000.0001) %MON trAdv_CFL_v_max              =   1.7007025682178E-09
(PID.TID 0000.0001) %MON trAdv_CFL_w_max              =   5.5986253656604E-15
(PID.TID 0000.0001) %MON advcfl_uvel_max              =   1.2660994264753E-09
(PID.TID 0000.0001) %MON advcfl_vvel_max              =   1.6939258069086E-09
(PID.TID 0000.0001) %MON advcfl_wvel_max              =   1.1235776505791E-14
(PID.TID 0000.0001) %MON advcfl_W_hf_max              =   0.0000000000000E+00
(PID.TID 0000.0001) %MON pe_b_mean                    =   7.5907631303549E-22
(PID.TID 0000.0001) %MON ke_max                       =   1.3309135256106E-18
(PID.TID 0000.0001) %MON ke_mean                      =   2.5325645752183E-19
(PID.TID 0000.0001) %MON ke_vol                       =   7.5645000000000E+15
(PID.TID 0000.0001) %MON vort_r_min                   =  -4.8968643977359E-14
(PID.TID 0000.0001) %MON vort_r_max                   =   4.0529707707580E-14
(PID.TID 0000.0001) %MON vort_a_mean                  =   8.2300000000001E-05
(PID.TID 0000.0001) %MON vort_a_sd                    =   7.1297555115520E-06
(PID.TID 0000.0001) %MON vort_p_mean                  =   8.3303658536586E-05
(PID.TID 0000.0001) %MON vort_p_sd                    =   1.7411470229638E-05
(PID.TID 0000.0001) %MON surfExpan_theta_mean         =   8.6512806580494E-28
(PID.TID 0000.0001) %MON surfExpan_salt_mean          =   1.2912244375225E-27
(PID.TID 0000.0001) // =======================================================
(PID.TID 0000.0001) // End MONITOR dynamic field statistics
(PID.TID 0000.0001) // =======================================================
 cg2d: Sum(rhs),rhsMax =  -3.36466709401666E-02  1.20903839105697E-10
 cg2d: Sum(rhs),rhsMax =  -3.34115596119506E-02  1.21754617976127E-10
 cg2d: Sum(rhs),rhsMax =  -3.31832340344086E-02  1.22592380823367E-10
 cg2d: Sum(rhs),rhsMax =  -3.29525711963750E-02  1.23450507875574E-10
 cg2d: Sum(rhs),rhsMax =  -3.27304694422211E-02  1.24288215438801E-10
 cg2d: Sum(rhs),rhsMax =  -3.25166848845012E-02  1.25105361727783E-10
 cg2d: Sum(rhs),rhsMax =  -3.23048539215939E-02  1.25925708296106E-10
 cg2d: Sum(rhs),rhsMax =  -3.20950141667715E-02  1.26749020148075E-10
 cg2d: Sum(rhs),rhsMax =  -3.18931472212583E-02  1.27551274810098E-10
 cg2d: Sum(rhs),rhsMax =  -3.16990368381327E-02  1.28332339875249E-10
 cg2d: Sum(rhs),rhsMax =  -3.15026995660348E-02  1.29132157282281E-10
 cg2d: Sum(rhs),rhsMax =  -3.13120942509047E-02  1.29918219728546E-10
 cg2d: Sum(rhs),rhsMax =  -3.11289421686232E-02  1.30682613792878E-10
 cg2d: Sum(rhs),rhsMax =  -3.09512608681405E-02  1.31432820536944E-10
 cg2d: Sum(rhs),rhsMax =  -3.07713182261931E-02  1.32201404929042E-10
 cg2d: Sum(rhs),rhsMax =  -3.05985492387048E-02  1.32947854993814E-10
(PID.TID 0000.0001)      cg2d_init_res =   4.13612631523367E-01
(PID.TID 0000.0001)      cg2d_iters(min,last) =      -1     552
(PID.TID 0000.0001)      cg2d_last_res =   9.42688318729577E-08
(PID.TID 0000.0001) // =======================================================
(PID.TID 0000.0001) // Begin MONITOR dynamic field statistics
(PID.TID 0000.0001) // =======================================================
(PID.TID 0000.0001) %MON time_tsnumber                =                  5168
(PID.TID 0000.0001) %MON time_secondsf                =   2.7907200000000E+07
(PID.TID 0000.0001) %MON dynstat_eta_max              =   1.4064320789895E-09
(PID.TID 0000.0001) %MON dynstat_eta_min              =  -2.4298321229518E-09
(PID.TID 0000.0001) %MON dynstat_eta_mean             =   3.9203917837685E-13
(PID.TID 0000.0001) %MON dynstat_eta_sd               =   8.7953125124735E-10
(PID.TID 0000.0001) %MON dynstat_eta_del2             =   5.8348267055094E-15
(PID.TID 0000.0001) %MON dynstat_uvel_max             =   7.9885584371575E-10
(PID.TID 0000.0001) %MON dynstat_uvel_min             =  -1.0270266552243E-09
(PID.TID 0000.0001) %MON dynstat_uvel_mean            =   5.5991559026115E-14
(PID.TID 0000.0001) %MON dynstat_uvel_sd              =   3.2630547136082E-10
(PID.TID 0000.0001) %MON dynstat_uvel_del2            =   2.6388571241727E-14
(PID.TID 0000.0001) %MON dynstat_vvel_max             =   1.5840361490247E-09
(PID.TID 0000.0001) %MON dynstat_vvel_min             =  -1.4766738701096E-09
(PID.TID 0000.0001) %MON dynstat_vvel_mean            =   6.4901900363462E-16
(PID.TID 0000.0001) %MON dynstat_vvel_sd              =   6.3042610789833E-10
(PID.TID 0000.0001) %MON dynstat_vvel_del2            =   1.9986065639549E-14
(PID.TID 0000.0001) %MON dynstat_wvel_max             =   5.4933000553925E-15
(PID.TID 0000.0001) %MON dynstat_wvel_min             =  -3.9680550434351E-15
(PID.TID 0000.0001) %MON dynstat_wvel_mean            =  -2.0081984066648E-29
(PID.TID 0000.0001) %MON dynstat_wvel_sd              =   2.2777968459758E-15
(PID.TID 0000.0001) %MON dynstat_wvel_del2            =   1.3703908718938E-20
(PID.TID 0000.0001) %MON dynstat_theta_max            =   2.0000000000000E+01
(PID.TID 0000.0001) %MON dynstat_theta_min            =   2.0000000000000E+01
(PID.TID 0000.0001) %MON dynstat_theta_mean           =   2.0000000000000E+01
(PID.TID 0000.0001) %MON dynstat_theta_sd             =   0.0000000000000E+00
(PID.TID 0000.0001) %MON dynstat_theta_del2           =   0.0000000000000E+00
(PID.TID 0000.0001) %MON dynstat_salt_max             =   3.0000000000000E+01
(PID.TID 0000.0001) %MON dynstat_salt_min             =   3.0000000000000E+01
(PID.TID 0000.0001) %MON dynstat_salt_mean            =   3.0000000000000E+01
(PID.TID 0000.0001) %MON dynstat_salt_sd              =   0.0000000000000E+00
(PID.TID 0000.0001) %MON dynstat_salt_del2            =   0.0000000000000E+00
(PID.TID 0000.0001) %MON trAdv_CFL_u_max              =   1.1195668689922E-09
(PID.TID 0000.0001) %MON trAdv_CFL_v_max              =   1.7031539925595E-09
(PID.TID 0000.0001) %MON trAdv_CFL_w_max              =   5.9132605435219E-15
(PID.TID 0000.0001) %MON advcfl_uvel_max              =   1.1091887876423E-09
(PID.TID 0000.0001) %MON advcfl_vvel_max              =   1.7107590409467E-09
(PID.TID 0000.0001) %MON advcfl_wvel_max              =   1.1865528119648E-14
(PID.TID 0000.0001) %MON advcfl_W_hf_max              =   0.0000000000000E+00
(PID.TID 0000.0001) %MON pe_b_mean                    =   7.5887744347877E-22
(PID.TID 0000.0001) %MON ke_max                       =   1.2663900665535E-18
(PID.TID 0000.0001) %MON ke_mean                      =   2.5093195857186E-19
(PID.TID 0000.0001) %MON ke_vol                       =   7.5645000000000E+15
(PID.TID 0000.0001) %MON vort_r_min                   =  -3.9892618076618E-14
(PID.TID 0000.0001) %MON vort_r_max                   =   4.5640251391705E-14
(PID.TID 0000.0001) %MON vort_a_mean                  =   8.2300000000000E-05
(PID.TID 0000.0001) %MON vort_a_sd                    =   7.1297555115622E-06
(PID.TID 0000.0001) %MON vort_p_mean                  =   8.3303658536585E-05
(PID.TID 0000.0001) %MON vort_p_sd                    =   1.7411470229644E-05
(PID.TID 0000.0001) %MON surfExpan_theta_mean         =  -4.0727061796552E-28
(PID.TID 0000.0001) %MON surfExpan_salt_mean          =  -6.4116822112833E-28
(PID.TID 0000.0001) // =======================================================
(PID.TID 0000.0001) // End MONITOR dynamic field statistics
(PID.TID 0000.0001) // =======================================================
 cg2d: Sum(rhs),rhsMax =  -3.04327744785506E-02  1.33672054022954E-10
 cg2d: Sum(rhs),rhsMax =  -3.02688158461642E-02  1.34396121735763E-10
 cg2d: Sum(rhs),rhsMax =  -3.01059053018284E-02  1.35123372087571E-10
 cg2d: Sum(rhs),rhsMax =  -2.99497428207861E-02  1.35827925220549E-10
 cg2d: Sum(rhs),rhsMax =  -2.98001691692702E-02  1.36509675164993E-10
 cg2d: Sum(rhs),rhsMax =  -2.96492410431584E-02  1.37204571053800E-10
 cg2d: Sum(rhs),rhsMax =  -2.95022324073424E-02  1.37888256338914E-10
 cg2d: Sum(rhs),rhsMax =  -2.93615961581918E-02  1.38548713403379E-10
 cg2d: Sum(rhs),rhsMax =  -2.92269557679749E-02  1.39186967980693E-10
 cg2d: Sum(rhs),rhsMax =  -2.90886843533994E-02  1.39848584837448E-10
 cg2d: Sum(rhs),rhsMax =  -2.89565863472148E-02  1.40486564242411E-10
 cg2d: Sum(rhs),rhsMax =  -2.88305295856286E-02  1.41100818229139E-10
 cg2d: Sum(rhs),rhsMax =  -2.87076925568363E-02  1.41704572472121E-10
 cg2d: Sum(rhs),rhsMax =  -2.85837714549764E-02  1.42318913098689E-10
 cg2d: Sum(rhs),rhsMax =  -2.84657174237318E-02  1.42909142594052E-10
 cg2d: Sum(rhs),rhsMax =  -2.83534135360469E-02  1.43475185073830E-10
(PID.TID 0000.0001)      cg2d_init_res =   3.76857005356112E-01
(PID.TID 0000.0001)      cg2d_iters(min,last) =      -1     550
(PID.TID 0000.0001)      cg2d_last_res =   9.72493452709216E-08
(PID.TID 0000.0001) // =======================================================
(PID.TID 0000.0001) // Begin MONITOR dynamic field statistics
(PID.TID 0000.0001) // =======================================================
(PID.TID 0000.0001) %MON time_tsnumber                =                  5184
(PID.TID 0000.0001) %MON time_secondsf                =   2.7993600000000E+07
(PID.TID 0000.0001) %MON dynstat_eta_max              =   1.4776514977740E-09
(PID.TID 0000.0001) %MON dynstat_eta_min              =  -2.3855796149453E-09
(PID.TID 0000.0001) %MON dynstat_eta_mean             =   3.9203915567351E-13
(PID.TID 0000.0001) %MON dynstat_eta_sd               =   8.7788587125244E-10
(PID.TID 0000.0001) %MON dynstat_eta_del2             =   5.7118020788388E-15
(PID.TID 0000.0001) %MON dynstat_uvel_max             =   7.6230410140457E-10
(PID.TID 0000.0001) %MON dynstat_uvel_min             =  -8.6428952518527E-10
(PID.TID 0000.0001) %MON dynstat_uvel_mean            =   3.4384119342317E-14
(PID.TID 0000.0001) %MON dynstat_uvel_sd              =   3.1652167380541E-10
(PID.TID 0000.0001) %MON dynstat_uvel_del2            =   2.6223609955802E-14
(PID.TID 0000.0001) %MON dynstat_vvel_max             =   1.6914177465782E-09
(PID.TID 0000.0001) %MON dynstat_vvel_min             =  -1.3867711363893E-09
(PID.TID 0000.0001) %MON dynstat_vvel_mean            =   6.8865927596435E-16
(PID.TID 0000.0001) %MON dynstat_vvel_sd              =   6.3183962497337E-10
(PID.TID 0000.0001) %MON dynstat_vvel_del2            =   1.9518566084056E-14
(PID.TID 0000.0001) %MON dynstat_wvel_max             =   5.7535070727144E-15
(PID.TID 0000.0001) %MON dynstat_wvel_min             =  -3.4413624250274E-15
(PID.TID 0000.0001) %MON dynstat_wvel_mean            =  -8.0202331061508E-30
(PID.TID 0000.0001) %MON dynstat_wvel_sd              =   2.2526133223213E-15
(PID.TID 0000.0001) %MON dynstat_wvel_del2            =   1.3554730522438E-20
(PID.TID 0000.0001) %MON dynstat_theta_max            =   2.0000000000000E+01
(PID.TID 0000.0001) %MON dynstat_theta_min            =   2.0000000000000E+01
(PID.TID 0000.0001) %MON dynstat_theta_mean           =   2.0000000000000E+01
(PID.TID 0000.0001) %MON dynstat_theta_sd             =   0.0000000000000E+00
(PID.TID 0000.0001) %MON dynstat_theta_del2           =   0.0000000000000E+00
(PID.TID 0000.0001) %MON dynstat_salt_max             =   3.0000000000000E+01
(PID.TID 0000.0001) %MON dynstat_salt_min             =   3.0000000000000E+01
(PID.TID 0000.0001) %MON dynstat_salt_mean            =   3.0000000000000E+01
(PID.TID 0000.0001) %MON dynstat_salt_sd              =   0.0000000000000E+00
(PID.TID 0000.0001) %MON dynstat_salt_del2            =   0.0000000000000E+00
(PID.TID 0000.0001) %MON trAdv_CFL_u_max              =   9.4477689311926E-10
(PID.TID 0000.0001) %MON trAdv_CFL_v_max              =   1.8199641095160E-09
(PID.TID 0000.0001) %MON trAdv_CFL_w_max              =   6.1978862370360E-15
(PID.TID 0000.0001) %MON advcfl_uvel_max              =   9.3343268720009E-10
(PID.TID 0000.0001) %MON advcfl_vvel_max              =   1.8267311663044E-09
(PID.TID 0000.0001) %MON advcfl_wvel_max              =   1.2427575277063E-14
(PID.TID 0000.0001) %MON advcfl_W_hf_max              =   0.0000000000000E+00
(PID.TID 0000.0001) %MON pe_b_mean                    =   7.5604076526320E-22
(PID.TID 0000.0001) %MON ke_max                       =   1.4396492436620E-18
(PID.TID 0000.0001) %MON ke_mean                      =   2.4868858597594E-19
(PID.TID 0000.0001) %MON ke_vol                       =   7.5645000000000E+15
(PID.TID 0000.0001) %MON vort_r_min                   =  -3.5840128871429E-14
(PID.TID 0000.0001) %MON vort_r_max                   =   5.0047255099895E-14
(PID.TID 0000.0001) %MON vort_a_mean                  =   8.2300000000000E-05
(PID.TID 0000.0001) %MON vort_a_sd                    =   7.1297555115567E-06
(PID.TID 0000.0001) %MON vort_p_mean                  =   8.3303658536586E-05
(PID.TID 0000.0001) %MON vort_p_sd                    =   1.7411470229648E-05
(PID.TID 0000.0001) %MON surfExpan_theta_mean         =  -1.8075578957895E-28
(PID.TID 0000.0001) %MON surfExpan_salt_mean          =  -2.9744299016584E-28
(PID.TID 0000.0001) // =======================================================
(PID.TID 0000.0001) // End MONITOR dynamic field statistics
(PID.TID 0000.0001) // =======================================================
 cg2d: Sum(rhs),rhsMax =  -2.82419224227839E-02  1.44041583919878E-10
 cg2d: Sum(rhs),rhsMax =  -2.81315599636423E-02  1.44606670548976E-10
 cg2d: Sum(rhs),rhsMax =  -2.80267958960734E-02  1.45147209269328E-10
 cg2d: Sum(rhs),rhsMax =  -2.79275271098167E-02  1.45663136545207E-10
 cg2d: Sum(rhs),rhsMax =  -2.78269906104219E-02  1.46189404226151E-10
 cg2d: Sum(rhs),rhsMax =  -2.77295011040144E-02  1.46703366492489E-10
 cg2d: Sum(rhs),rhsMax =  -2.76373755169523E-02  1.47192382498807E-10
 cg2d: Sum(rhs),rhsMax =  -2.75505233299485E-02  1.47656401484052E-10
 cg2d: Sum(rhs),rhsMax =  -2.74606126540046E-02  1.48139852849113E-10
 cg2d: Sum(rhs),rhsMax =  -2.73754074570397E-02  1.48600933504702E-10
 cg2d: Sum(rhs),rhsMax =  -2.72953630122878E-02  1.49036709529928E-10
 cg2d: Sum(rhs),rhsMax =  -2.72193259437704E-02  1.49453042393485E-10
 cg2d: Sum(rhs),rhsMax =  -2.71408464600796E-02  1.49885194863588E-10
 cg2d: Sum(rhs),rhsMax =  -2.70674265544392E-02  1.50291755189865E-10
 cg2d: Sum(rhs),rhsMax =  -2.69989931546035E-02  1.50672693926535E-10
 cg2d: Sum(rhs),rhsMax =  -2.69330213139761E-02  1.51041762819900E-10
(PID.TID 0000.0001)      cg2d_init_res =   3.51523811640755E-01
(PID.TID 0000.0001)      cg2d_iters(min,last) =      -1     550
(PID.TID 0000.0001)      cg2d_last_res =   9.00155233316327E-08
(PID.TID 0000.0001) // =======================================================
(PID.TID 0000.0001) // Begin MONITOR dynamic field statistics
(PID.TID 0000.0001) // =======================================================
(PID.TID 0000.0001) %MON time_tsnumber                =                  5200
(PID.TID 0000.0001) %MON time_secondsf                =   2.8080000000000E+07
(PID.TID 0000.0001) %MON dynstat_eta_max              =   1.6142209707170E-09
(PID.TID 0000.0001) %MON dynstat_eta_min              =  -2.3033429699918E-09
(PID.TID 0000.0001) %MON dynstat_eta_mean             =   3.9203913294898E-13
(PID.TID 0000.0001) %MON dynstat_eta_sd               =   8.7392315103131E-10
(PID.TID 0000.0001) %MON dynstat_eta_del2             =   5.6121967730194E-15
(PID.TID 0000.0001) %MON dynstat_uvel_max             =   8.4085660885329E-10
(PID.TID 0000.0001) %MON dynstat_uvel_min             =  -6.9773555710983E-10
(PID.TID 0000.0001) %MON dynstat_uvel_mean            =   1.1219000404299E-14
(PID.TID 0000.0001) %MON dynstat_uvel_sd              =   3.0923923393845E-10
(PID.TID 0000.0001) %MON dynstat_uvel_del2            =   2.6266848572545E-14
(PID.TID 0000.0001) %MON dynstat_vvel_max             =   1.7791443688528E-09
(PID.TID 0000.0001) %MON dynstat_vvel_min             =  -1.2893753790074E-09
(PID.TID 0000.0001) %MON dynstat_vvel_mean            =   1.0013141483842E-15
(PID.TID 0000.0001) %MON dynstat_vvel_sd              =   6.3197735612090E-10
(PID.TID 0000.0001) %MON dynstat_vvel_del2            =   1.9113904422009E-14
(PID.TID 0000.0001) %MON dynstat_wvel_max             =   5.9535658372689E-15
(PID.TID 0000.0001) %MON dynstat_wvel_min             =  -2.9091130214487E-15
(PID.TID 0000.0001) %MON dynstat_wvel_mean            =  -1.5599737205052E-29
(PID.TID 0000.0001) %MON dynstat_wvel_sd              =   2.2353414428250E-15
(PID.TID 0000.0001) %MON dynstat_wvel_del2            =   1.3368854426211E-20
(PID.TID 0000.0001) %MON dynstat_theta_max            =   2.0000000000000E+01
(PID.TID 0000.0001) %MON dynstat_theta_min            =   2.0000000000000E+01
(PID.TID 0000.0001) %MON dynstat_theta_mean           =   2.0000000000000E+01
(PID.TID 0000.0001) %MON dynstat_theta_sd             =   0.0000000000000E+00
(PID.TID 0000.0001) %MON dynstat_theta_del2           =   0.0000000000000E+00
(PID.TID 0000.0001) %MON dynstat_salt_max             =   3.0000000000000E+01
(PID.TID 0000.0001) %MON dynstat_salt_min             =   3.0000000000000E+01
(PID.TID 0000.0001) %MON dynstat_salt_mean            =   3.0000000000000E+01
(PID.TID 0000.0001) %MON dynstat_salt_sd              =   0.0000000000000E+00
(PID.TID 0000.0001) %MON dynstat_salt_del2            =   0.0000000000000E+00
(PID.TID 0000.0001) %MON trAdv_CFL_u_max              =   9.0334087610713E-10
(PID.TID 0000.0001) %MON trAdv_CFL_v_max              =   1.9162985523587E-09
(PID.TID 0000.0001) %MON trAdv_CFL_w_max              =   6.4183989174516E-15
(PID.TID 0000.0001) %MON advcfl_uvel_max              =   9.0812513756155E-10
(PID.TID 0000.0001) %MON advcfl_vvel_max              =   1.9214759183610E-09
(PID.TID 0000.0001) %MON advcfl_wvel_max              =   1.2859702208501E-14
(PID.TID 0000.0001) %MON advcfl_W_hf_max              =   0.0000000000000E+00
(PID.TID 0000.0001) %MON pe_b_mean                    =   7.4923073287871E-22
(PID.TID 0000.0001) %MON ke_max                       =   1.5894528233432E-18
(PID.TID 0000.0001) %MON ke_mean                      =   2.4650599437582E-19
(PID.TID 0000.0001) %MON ke_vol                       =   7.5645000000000E+15
(PID.TID 0000.0001) %MON vort_r_min                   =  -3.1654962071598E-14
(PID.TID 0000.0001) %MON vort_r_max                   =   5.3515482927751E-14
(PID.TID 0000.0001) %MON vort_a_mean                  =   8.2300000000001E-05
(PID.TID 0000.0001) %MON vort_a_sd                    =   7.1297555115529E-06
(PID.TID 0000.0001) %MON vort_p_mean                  =   8.3303658536586E-05
(PID.TID 0000.0001) %MON vort_p_sd                    =   1.7411470229652E-05
(PID.TID 0000.0001) %MON surfExpan_theta_mean         =  -3.6432550446222E-28
(PID.TID 0000.0001) %MON surfExpan_salt_mean          =  -5.7213495194604E-28
(PID.TID 0000.0001) // =======================================================
(PID.TID 0000.0001) // End MONITOR dynamic field statistics
(PID.TID 0000.0001) // =======================================================
 cg2d: Sum(rhs),rhsMax =  -2.68660693997778E-02  1.51418167743508E-10
 cg2d: Sum(rhs),rhsMax =  -2.68040194396260E-02  1.51768692621323E-10
 cg2d: Sum(rhs),rhsMax =  -2.67468086573901E-02  1.52093321689771E-10
 cg2d: Sum(rhs),rhsMax =  -2.66907470634038E-02  1.52412779912226E-10
 cg2d: Sum(rhs),rhsMax =  -2.66349603385081E-02  1.52732006795104E-10
 cg2d: Sum(rhs),rhsMax =  -2.65839439218137E-02  1.53025109423589E-10
 cg2d: Sum(rhs),rhsMax =  -2.65376446980820E-02  1.53292085984835E-10
 cg2d: Sum(rhs),rhsMax =  -2.64913931915417E-02  1.53559719149823E-10
 cg2d: Sum(rhs),rhsMax =  -2.64464860213171E-02  1.53820469026329E-10
 cg2d: Sum(rhs),rhsMax =  -2.64062421484879E-02  1.54054895277140E-10
 cg2d: Sum(rhs),rhsMax =  -2.63706175958151E-02  1.54263010277370E-10
 cg2d: Sum(rhs),rhsMax =  -2.63341308075594E-02  1.54476746055737E-10
 cg2d: Sum(rhs),rhsMax =  -2.62998915218174E-02  1.54677855581034E-10
 cg2d: Sum(rhs),rhsMax =  -2.62702321542362E-02  1.54852487978246E-10
 cg2d: Sum(rhs),rhsMax =  -2.62451174673291E-02  1.55000670015485E-10
 cg2d: Sum(rhs),rhsMax =  -2.62184055583903E-02  1.55158587610983E-10
(PID.TID 0000.0001)      cg2d_init_res =   3.35999979271159E-01
(PID.TID 0000.0001)      cg2d_iters(min,last) =      -1     550
(PID.TID 0000.0001)      cg2d_last_res =   9.33366760970956E-08
(PID.TID 0000.0001) // =======================================================
(PID.TID 0000.0001) // Begin MONITOR dynamic field statistics
(PID.TID 0000.0001) // =======================================================
(PID.TID 0000.0001) %MON time_tsnumber                =                  5216
(PID.TID 0000.0001) %MON time_secondsf                =   2.8166400000000E+07
(PID.TID 0000.0001) %MON dynstat_eta_max              =   1.8005532454768E-09
(PID.TID 0000.0001) %MON dynstat_eta_min              =  -2.1873612240765E-09
(PID.TID 0000.0001) %MON dynstat_eta_mean             =   3.9203910974372E-13
(PID.TID 0000.0001) %MON dynstat_eta_sd               =   8.6739464915468E-10
(PID.TID 0000.0001) %MON dynstat_eta_del2             =   5.5356482876479E-15
(PID.TID 0000.0001) %MON dynstat_uvel_max             =   9.0483988057911E-10
(PID.TID 0000.0001) %MON dynstat_uvel_min             =  -7.3077469891170E-10
(PID.TID 0000.0001) %MON dynstat_uvel_mean            =  -1.2168816504509E-14
(PID.TID 0000.0001) %MON dynstat_uvel_sd              =   3.0577655406913E-10
(PID.TID 0000.0001) %MON dynstat_uvel_del2            =   2.6382487371456E-14
(PID.TID 0000.0001) %MON dynstat_vvel_max             =   1.8430076880902E-09
(PID.TID 0000.0001) %MON dynstat_vvel_min             =  -1.1825515831871E-09
(PID.TID 0000.0001) %MON dynstat_vvel_mean            =   1.5943832179999E-15
(PID.TID 0000.0001) %MON dynstat_vvel_sd              =   6.3026187373275E-10
(PID.TID 0000.0001) %MON dynstat_vvel_del2            =   1.8796517025095E-14
(PID.TID 0000.0001) %MON dynstat_wvel_max             =   6.0781886362937E-15
(PID.TID 0000.0001) %MON dynstat_wvel_min             =  -2.3875516803884E-15
(PID.TID 0000.0001) %MON dynstat_wvel_mean            =   3.0541786723028E-29
(PID.TID 0000.0001) %MON dynstat_wvel_sd              =   2.2263452402325E-15
(PID.TID 0000.0001) %MON dynstat_wvel_del2            =   1.3164953411663E-20
(PID.TID 0000.0001) %MON dynstat_theta_max            =   2.0000000000000E+01
(PID.TID 0000.0001) %MON dynstat_theta_min            =   2.0000000000000E+01
(PID.TID 0000.0001) %MON dynstat_theta_mean           =   2.0000000000000E+01
(PID.TID 0000.0001) %MON dynstat_theta_sd             =   0.0000000000000E+00
(PID.TID 0000.0001) %MON dynstat_theta_del2           =   0.0000000000000E+00
(PID.TID 0000.0001) %MON dynstat_salt_max             =   3.0000000000000E+01
(PID.TID 0000.0001) %MON dynstat_salt_min             =   3.0000000000000E+01
(PID.TID 0000.0001) %MON dynstat_salt_mean            =   3.0000000000000E+01
(PID.TID 0000.0001) %MON dynstat_salt_sd              =   0.0000000000000E+00
(PID.TID 0000.0001) %MON dynstat_salt_del2            =   0.0000000000000E+00
(PID.TID 0000.0001) %MON trAdv_CFL_u_max              =   9.7354978322001E-10
(PID.TID 0000.0001) %MON trAdv_CFL_v_max              =   1.9869182482449E-09
(PID.TID 0000.0001) %MON trAdv_CFL_w_max              =   6.5590359695555E-15
(PID.TID 0000.0001) %MON advcfl_uvel_max              =   9.7722707102544E-10
(PID.TID 0000.0001) %MON advcfl_vvel_max              =   1.9904483031375E-09
(PID.TID 0000.0001) %MON advcfl_wvel_max              =   1.3128887454394E-14
(PID.TID 0000.0001) %MON advcfl_W_hf_max              =   0.0000000000000E+00
(PID.TID 0000.0001) %MON pe_b_mean                    =   7.3807853208637E-22
(PID.TID 0000.0001) %MON ke_max                       =   1.7030744253041E-18
(PID.TID 0000.0001) %MON ke_mean                      =   2.4436724798635E-19
(PID.TID 0000.0001) %MON ke_vol                       =   7.5645000000000E+15
(PID.TID 0000.0001) %MON vort_r_min                   =  -3.0048048696860E-14
(PID.TID 0000.0001) %MON vort_r_max                   =   5.5832142486089E-14
(PID.TID 0000.0001) %MON vort_a_mean                  =   8.2299999999998E-05
(PID.TID 0000.0001) %MON vort_a_sd                    =   7.1297555115756E-06
(PID.TID 0000.0001) %MON vort_p_mean                  =   8.3303658536584E-05
(PID.TID 0000.0001) %MON vort_p_sd                    =   1.7411470229668E-05
(PID.TID 0000.0001) %MON surfExpan_theta_mean         =   5.4454885413580E-28
(PID.TID 0000.0001) %MON surfExpan_salt_mean          =   8.2002351937312E-28
(PID.TID 0000.0001) // =======================================================
(PID.TID 0000.0001) // End MONITOR dynamic field statistics
(PID.TID 0000.0001) // =======================================================
 cg2d: Sum(rhs),rhsMax =  -2.61946947740965E-02  1.55299032771625E-10
 cg2d: Sum(rhs),rhsMax =  -2.61755034654333E-02  1.55412894086537E-10
 cg2d: Sum(rhs),rhsMax =  -2.61608049105159E-02  1.55500212889008E-10
 cg2d: Sum(rhs),rhsMax =  -2.61439350112478E-02  1.55600551970426E-10
 cg2d: Sum(rhs),rhsMax =  -2.61306849922683E-02  1.55679451403836E-10
 cg2d: Sum(rhs),rhsMax =  -2.61219166254544E-02  1.55731707855864E-10
 cg2d: Sum(rhs),rhsMax =  -2.61176115212880E-02  1.55757377363514E-10
 cg2d: Sum(rhs),rhsMax =  -2.61107099635147E-02  1.55798546412241E-10
 cg2d: Sum(rhs),rhsMax =  -2.61079251133410E-02  1.55815164327463E-10
 cg2d: Sum(rhs),rhsMax =  -2.61096067147274E-02  1.55805128383536E-10
 cg2d: Sum(rhs),rhsMax =  -2.61157212812065E-02  1.55768648555337E-10
 cg2d: Sum(rhs),rhsMax =  -2.61190001456349E-02  1.55749093510684E-10
 cg2d: Sum(rhs),rhsMax =  -2.61267586550363E-02  1.55702842202683E-10
 cg2d: Sum(rhs),rhsMax =  -2.61389913130535E-02  1.55629974968050E-10
 cg2d: Sum(rhs),rhsMax =  -2.61554100494544E-02  1.55532279536961E-10
 cg2d: Sum(rhs),rhsMax =  -2.61693641633489E-02  1.55449345525151E-10
(PID.TID 0000.0001)      cg2d_init_res =   3.29633318475758E-01
(PID.TID 0000.0001)      cg2d_iters(min,last) =      -1     550
(PID.TID 0000.0001)      cg2d_last_res =   9.83099607558779E-08
(PID.TID 0000.0001) // =======================================================
(PID.TID 0000.0001) // Begin MONITOR dynamic field statistics
(PID.TID 0000.0001) // =======================================================
(PID.TID 0000.0001) %MON time_tsnumber                =                  5232
(PID.TID 0000.0001) %MON time_secondsf                =   2.8252800000000E+07
(PID.TID 0000.0001) %MON dynstat_eta_max              =   1.9775019416968E-09
(PID.TID 0000.0001) %MON dynstat_eta_min              =  -2.0422023113919E-09
(PID.TID 0000.0001) %MON dynstat_eta_mean             =   3.9203908600251E-13
(PID.TID 0000.0001) %MON dynstat_eta_sd               =   8.5861058232735E-10
(PID.TID 0000.0001) %MON dynstat_eta_del2             =   5.4792899972025E-15
(PID.TID 0000.0001) %MON dynstat_uvel_max             =   9.5058214770063E-10
(PID.TID 0000.0001) %MON dynstat_uvel_min             =  -7.9124908189068E-10
(PID.TID 0000.0001) %MON dynstat_uvel_mean            =  -3.4449618012748E-14
(PID.TID 0000.0001) %MON dynstat_uvel_sd              =   3.0639480788623E-10
(PID.TID 0000.0001) %MON dynstat_uvel_del2            =   2.6426756836906E-14
(PID.TID 0000.0001) %MON dynstat_vvel_max             =   1.8800359126390E-09
(PID.TID 0000.0001) %MON dynstat_vvel_min             =  -1.0662409471601E-09
(PID.TID 0000.0001) %MON dynstat_vvel_mean            =   2.4546552470692E-15
(PID.TID 0000.0001) %MON dynstat_vvel_sd              =   6.2659282465062E-10
(PID.TID 0000.0001) %MON dynstat_vvel_del2            =   1.8607275327347E-14
(PID.TID 0000.0001) %MON dynstat_wvel_max             =   6.1182191771203E-15
(PID.TID 0000.0001) %MON dynstat_wvel_min             =  -2.7008355196756E-15
(PID.TID 0000.0001) %MON dynstat_wvel_mean            =   1.1860636796457E-28
(PID.TID 0000.0001) %MON dynstat_wvel_sd              =   2.2243714199766E-15
(PID.TID 0000.0001) %MON dynstat_wvel_del2            =   1.2954921882375E-20
(PID.TID 0000.0001) %MON dynstat_theta_max            =   2.0000000000000E+01
(PID.TID 0000.0001) %MON dynstat_theta_min            =   2.0000000000000E+01
(PID.TID 0000.0001) %MON dynstat_theta_mean           =   2.0000000000000E+01
(PID.TID 0000.0001) %MON dynstat_theta_sd             =   0.0000000000000E+00
(PID.TID 0000.0001) %MON dynstat_theta_del2           =   0.0000000000000E+00
(PID.TID 0000.0001) %MON dynstat_salt_max             =   3.0000000000000E+01
(PID.TID 0000.0001) %MON dynstat_salt_min             =   3.0000000000000E+01
(PID.TID 0000.0001) %MON dynstat_salt_mean            =   3.0000000000000E+01
(PID.TID 0000.0001) %MON dynstat_salt_sd              =   0.0000000000000E+00
(PID.TID 0000.0001) %MON dynstat_salt_del2            =   0.0000000000000E+00
(PID.TID 0000.0001) %MON trAdv_CFL_u_max              =   1.0242301990277E-09
(PID.TID 0000.0001) %MON trAdv_CFL_v_max              =   2.0285569263237E-09
(PID.TID 0000.0001) %MON trAdv_CFL_w_max              =   6.6081152625852E-15
(PID.TID 0000.0001) %MON advcfl_uvel_max              =   1.0266287195167E-09
(PID.TID 0000.0001) %MON advcfl_vvel_max              =   2.0304387856501E-09
(PID.TID 0000.0001) %MON advcfl_wvel_max              =   1.3215353422580E-14
(PID.TID 0000.0001) %MON advcfl_W_hf_max              =   0.0000000000000E+00
(PID.TID 0000.0001) %MON pe_b_mean                    =   7.2320525234935E-22
(PID.TID 0000.0001) %MON ke_max                       =   1.7702160929838E-18
(PID.TID 0000.0001) %MON ke_mean                      =   2.4225935998382E-19
(PID.TID 0000.0001) %MON ke_vol                       =   7.5645000000000E+15
(PID.TID 0000.0001) %MON vort_r_min                   =  -3.0932362538961E-14
(PID.TID 0000.0001) %MON vort_r_max                   =   5.6835847323329E-14
(PID.TID 0000.0001) %MON vort_a_mean                  =   8.2300000000001E-05
(PID.TID 0000.0001) %MON vort_a_sd                    =   7.1297555115502E-06
(PID.TID 0000.0001) %MON vort_p_mean                  =   8.3303658536586E-05
(PID.TID 0000.0001) %MON vort_p_sd                    =   1.7411470229665E-05
(PID.TID 0000.0001) %MON surfExpan_theta_mean         =   2.3320823065441E-27
(PID.TID 0000.0001) %MON surfExpan_salt_mean          =   3.4468994936517E-27
(PID.TID 0000.0001) // =======================================================
(PID.TID 0000.0001) // End MONITOR dynamic field statistics
(PID.TID 0000.0001) // =======================================================
 cg2d: Sum(rhs),rhsMax =  -2.61878207888859E-02  1.55339787478095E-10
 cg2d: Sum(rhs),rhsMax =  -2.62107828812494E-02  1.55203700674176E-10
 cg2d: Sum(rhs),rhsMax =  -2.62378239240210E-02  1.55043745091569E-10
 cg2d: Sum(rhs),rhsMax =  -2.62626643700128E-02  1.54897096944573E-10
 cg2d: Sum(rhs),rhsMax =  -2.62920546228036E-02  1.54723946517529E-10
 cg2d: Sum(rhs),rhsMax =  -2.63260063205909E-02  1.54524404040474E-10
 cg2d: Sum(rhs),rhsMax =  -2.63640641870360E-02  1.54301339568622E-10
 cg2d: Sum(rhs),rhsMax =  -2.64000870634253E-02  1.54090795065172E-10
 cg2d: Sum(rhs),rhsMax =  -2.64407328492650E-02  1.53853919754515E-10
 cg2d: Sum(rhs),rhsMax =  -2.64860222522931E-02  1.53590838807067E-10
 cg2d: Sum(rhs),rhsMax =  -2.65355756296756E-02  1.53304017853656E-10
 cg2d: Sum(rhs),rhsMax =  -2.65831689576189E-02  1.53029548623679E-10
 cg2d: Sum(rhs),rhsMax =  -2.66354859580715E-02  1.52728969906020E-10
 cg2d: Sum(rhs),rhsMax =  -2.66925569399175E-02  1.52402421720777E-10
 cg2d: Sum(rhs),rhsMax =  -2.67541781095019E-02  1.52051402547530E-10
 cg2d: Sum(rhs),rhsMax =  -2.68138305805147E-02  1.51713134718862E-10
(PID.TID 0000.0001)      cg2d_init_res =   3.32561332482962E-01
(PID.TID 0000.0001)      cg2d_iters(min,last) =      -1     551
(PID.TID 0000.0001)      cg2d_last_res =   9.43118338564551E-08
(PID.TID 0000.0001) // =======================================================
(PID.TID 0000.0001) // Begin MONITOR dynamic field statistics
(PID.TID 0000.0001) // =======================================================
(PID.TID 0000.0001) %MON time_tsnumber                =                  5248
(PID.TID 0000.0001) %MON time_secondsf                =   2.8339200000000E+07
(PID.TID 0000.0001) %MON dynstat_eta_max              =   2.1362365862505E-09
(PID.TID 0000.0001) %MON dynstat_eta_min              =  -1.8728081065156E-09
(PID.TID 0000.0001) %MON dynstat_eta_mean             =   3.9203906302486E-13
(PID.TID 0000.0001) %MON dynstat_eta_sd               =   8.4836433828083E-10
(PID.TID 0000.0001) %MON dynstat_eta_del2             =   5.4387168667166E-15
(PID.TID 0000.0001) %MON dynstat_uvel_max             =   9.7897383510236E-10
(PID.TID 0000.0001) %MON dynstat_uvel_min             =  -8.4749145315031E-10
(PID.TID 0000.0001) %MON dynstat_uvel_mean            =  -5.4372666889035E-14
(PID.TID 0000.0001) %MON dynstat_uvel_sd              =   3.1021946363704E-10
(PID.TID 0000.0001) %MON dynstat_uvel_del2            =   2.6283144821499E-14
(PID.TID 0000.0001) %MON dynstat_vvel_max             =   1.8883455953455E-09
(PID.TID 0000.0001) %MON dynstat_vvel_min             =  -1.1514195020661E-09
(PID.TID 0000.0001) %MON dynstat_vvel_mean            =   3.5489438979236E-15
(PID.TID 0000.0001) %MON dynstat_vvel_sd              =   6.2134591024655E-10
(PID.TID 0000.0001) %MON dynstat_vvel_del2            =   1.8578868067443E-14
(PID.TID 0000.0001) %MON dynstat_wvel_max             =   6.0679317764878E-15
(PID.TID 0000.0001) %MON dynstat_wvel_min             =  -3.1857432160332E-15
(PID.TID 0000.0001) %MON dynstat_wvel_mean            =   4.3649320873615E-29
(PID.TID 0000.0001) %MON dynstat_wvel_sd              =   2.2268878417824E-15
(PID.TID 0000.0001) %MON dynstat_wvel_del2            =   1.2748257465566E-20
(PID.TID 0000.0001) %MON dynstat_theta_max            =   2.0000000000000E+01
(PID.TID 0000.0001) %MON dynstat_theta_min            =   2.0000000000000E+01
(PID.TID 0000.0001) %MON dynstat_theta_mean           =   2.0000000000000E+01
(PID.TID 0000.0001) %MON dynstat_theta_sd             =   0.0000000000000E+00
(PID.TID 0000.0001) %MON dynstat_theta_del2           =   0.0000000000000E+00
(PID.TID 0000.0001) %MON dynstat_salt_max             =   3.0000000000000E+01
(PID.TID 0000.0001) %MON dynstat_salt_min             =   3.0000000000000E+01
(PID.TID 0000.0001) %MON dynstat_salt_mean            =   3.0000000000000E+01
(PID.TID 0000.0001) %MON dynstat_salt_sd              =   0.0000000000000E+00
(PID.TID 0000.0001) %MON dynstat_salt_del2            =   0.0000000000000E+00
(PID.TID 0000.0001) %MON trAdv_CFL_u_max              =   1.0560064599263E-09
(PID.TID 0000.0001) %MON trAdv_CFL_v_max              =   2.0400346864673E-09
(PID.TID 0000.0001) %MON trAdv_CFL_w_max              =   6.5597272594808E-15
(PID.TID 0000.0001) %MON advcfl_uvel_max              =   1.0572917419105E-09
(PID.TID 0000.0001) %MON advcfl_vvel_max              =   2.0394132429732E-09
(PID.TID 0000.0001) %MON advcfl_wvel_max              =   1.3106732637214E-14
(PID.TID 0000.0001) %MON advcfl_W_hf_max              =   0.0000000000000E+00
(PID.TID 0000.0001) %MON pe_b_mean                    =   7.0604748228223E-22
(PID.TID 0000.0001) %MON ke_max                       =   1.7844571932464E-18
(PID.TID 0000.0001) %MON ke_mean                      =   2.4017313089075E-19
(PID.TID 0000.0001) %MON ke_vol                       =   7.5645000000000E+15
(PID.TID 0000.0001) %MON vort_r_min                   =  -3.0848539859261E-14
(PID.TID 0000.0001) %MON vort_r_max                   =   5.6415609565733E-14
(PID.TID 0000.0001) %MON vort_a_mean                  =   8.2300000000001E-05
(PID.TID 0000.0001) %MON vort_a_sd                    =   7.1297555115445E-06
(PID.TID 0000.0001) %MON vort_p_mean                  =   8.3303658536587E-05
(PID.TID 0000.0001) %MON vort_p_sd                    =   1.7411470229669E-05
(PID.TID 0000.0001) %MON surfExpan_theta_mean         =   8.4128976265986E-28
(PID.TID 0000.0001) %MON surfExpan_salt_mean          =   1.2426441950522E-27
(PID.TID 0000.0001) // =======================================================
(PID.TID 0000.0001) // End MONITOR dynamic field statistics
(PID.TID 0000.0001) // =======================================================
 cg2d: Sum(rhs),rhsMax =  -2.68783375657492E-02  1.51349028470925E-10
 cg2d: Sum(rhs),rhsMax =  -2.69477396745796E-02  1.50959238580719E-10
 cg2d: Sum(rhs),rhsMax =  -2.70220817565680E-02  1.50543924987142E-10
 cg2d: Sum(rhs),rhsMax =  -2.70944182585758E-02  1.50142003280951E-10
 cg2d: Sum(rhs),rhsMax =  -2.71717488412482E-02  1.49714699759848E-10
 cg2d: Sum(rhs),rhsMax =  -2.72541497517176E-02  1.49262047877779E-10
 cg2d: Sum(rhs),rhsMax =  -2.73416773131846E-02  1.48784222122730E-10
 cg2d: Sum(rhs),rhsMax =  -2.74277560966664E-02  1.48317279799097E-10
 cg2d: Sum(rhs),rhsMax =  -2.75186732867890E-02  1.47827263217773E-10
 cg2d: Sum(rhs),rhsMax =  -2.76148741409690E-02  1.47312282664810E-10
 cg2d: Sum(rhs),rhsMax =  -2.77164276789820E-02  1.46772526987058E-10
 cg2d: Sum(rhs),rhsMax =  -2.78172101326549E-02  1.46240765899619E-10
 cg2d: Sum(rhs),rhsMax =  -2.79226243278883E-02  1.45688673579496E-10
 cg2d: Sum(rhs),rhsMax =  -2.80335787199391E-02  1.45112050297714E-10
 cg2d: Sum(rhs),rhsMax =  -2.81501566065400E-02  1.44511099060004E-10
 cg2d: Sum(rhs),rhsMax =  -2.82667672439102E-02  1.43914937996881E-10
(PID.TID 0000.0001)      cg2d_init_res =   3.45922301296888E-01
(PID.TID 0000.0001)      cg2d_iters(min,last) =      -1     551
(PID.TID 0000.0001)      cg2d_last_res =   9.64770015322712E-08
(PID.TID 0000.0001) // =======================================================
(PID.TID 0000.0001) // Begin MONITOR dynamic field statistics
(PID.TID 0000.0001) // =======================================================
(PID.TID 0000.0001) %MON time_tsnumber                =                  5264
(PID.TID 0000.0001) %MON time_secondsf                =   2.8425600000000E+07
(PID.TID 0000.0001) %MON dynstat_eta_max              =   2.2707322782974E-09
(PID.TID 0000.0001) %MON dynstat_eta_min              =  -1.6839355217084E-09
(PID.TID 0000.0001) %MON dynstat_eta_mean             =   3.9203904023861E-13
(PID.TID 0000.0001) %MON dynstat_eta_sd               =   8.3777319629065E-10
(PID.TID 0000.0001) %MON dynstat_eta_del2             =   5.4089740985007E-15
(PID.TID 0000.0001) %MON dynstat_uvel_max             =   9.8405859378143E-10
(PID.TID 0000.0001) %MON dynstat_uvel_min             =  -8.9489103836055E-10
(PID.TID 0000.0001) %MON dynstat_uvel_mean            =  -7.0834737943596E-14
(PID.TID 0000.0001) %MON dynstat_uvel_sd              =   3.1557812442472E-10
(PID.TID 0000.0001) %MON dynstat_uvel_del2            =   2.5885131317678E-14
(PID.TID 0000.0001) %MON dynstat_vvel_max             =   1.8684949428628E-09
(PID.TID 0000.0001) %MON dynstat_vvel_min             =  -1.2694049903556E-09
(PID.TID 0000.0001) %MON dynstat_vvel_mean            =   4.8258990757610E-15
(PID.TID 0000.0001) %MON dynstat_vvel_sd              =   6.1527169501247E-10
(PID.TID 0000.0001) %MON dynstat_vvel_del2            =   1.8714319633027E-14
(PID.TID 0000.0001) %MON dynstat_wvel_max             =   5.9256124990137E-15
(PID.TID 0000.0001) %MON dynstat_wvel_min             =  -3.6745710549346E-15
(PID.TID 0000.0001) %MON dynstat_wvel_mean            =   1.0549577555979E-28
(PID.TID 0000.0001) %MON dynstat_wvel_sd              =   2.2306982806463E-15
(PID.TID 0000.0001) %MON dynstat_wvel_del2            =   1.2561621344672E-20
(PID.TID 0000.0001) %MON dynstat_theta_max            =   2.0000000000000E+01
(PID.TID 0000.0001) %MON dynstat_theta_min            =   2.0000000000000E+01
(PID.TID 0000.0001) %MON dynstat_theta_mean           =   2.0000000000000E+01
(PID.TID 0000.0001) %MON dynstat_theta_sd             =   0.0000000000000E+00
(PID.TID 0000.0001) %MON dynstat_theta_del2           =   0.0000000000000E+00
(PID.TID 0000.0001) %MON dynstat_salt_max             =   3.0000000000000E+01
(PID.TID 0000.0001) %MON dynstat_salt_min             =   3.0000000000000E+01
(PID.TID 0000.0001) %MON dynstat_salt_mean            =   3.0000000000000E+01
(PID.TID 0000.0001) %MON dynstat_salt_sd              =   0.0000000000000E+00
(PID.TID 0000.0001) %MON dynstat_salt_del2            =   0.0000000000000E+00
(PID.TID 0000.0001) %MON trAdv_CFL_u_max              =   1.0632766354020E-09
(PID.TID 0000.0001) %MON trAdv_CFL_v_max              =   2.0201616491899E-09
(PID.TID 0000.0001) %MON trAdv_CFL_w_max              =   6.4124443363234E-15
(PID.TID 0000.0001) %MON advcfl_uvel_max              =   1.0627832812839E-09
(PID.TID 0000.0001) %MON advcfl_vvel_max              =   2.0179745382918E-09
(PID.TID 0000.0001) %MON advcfl_wvel_max              =   1.2799322997870E-14
(PID.TID 0000.0001) %MON advcfl_W_hf_max              =   0.0000000000000E+00
(PID.TID 0000.0001) %MON pe_b_mean                    =   6.8852866455742E-22
(PID.TID 0000.0001) %MON ke_max                       =   1.7464720462247E-18
(PID.TID 0000.0001) %MON ke_mean                      =   2.3810256098222E-19
(PID.TID 0000.0001) %MON ke_vol                       =   7.5645000000000E+15
(PID.TID 0000.0001) %MON vort_r_min                   =  -2.8796136686065E-14
(PID.TID 0000.0001) %MON vort_r_max                   =   5.4517676847226E-14
(PID.TID 0000.0001) %MON vort_a_mean                  =   8.2299999999999E-05
(PID.TID 0000.0001) %MON vort_a_sd                    =   7.1297555115678E-06
(PID.TID 0000.0001) %MON vort_p_mean                  =   8.3303658536585E-05
(PID.TID 0000.0001) %MON vort_p_sd                    =   1.7411470229684E-05
(PID.TID 0000.0001) %MON surfExpan_theta_mean         =   2.1067790448823E-27
(PID.TID 0000.0001) %MON surfExpan_salt_mean          =   3.1331361846198E-27
(PID.TID 0000.0001) // =======================================================
(PID.TID 0000.0001) // End MONITOR dynamic field statistics
(PID.TID 0000.0001) // =======================================================
 cg2d: Sum(rhs),rhsMax =  -2.83877584222811E-02  1.43301559092133E-10
 cg2d: Sum(rhs),rhsMax =  -2.85145959207788E-02  1.42664130248460E-10
 cg2d: Sum(rhs),rhsMax =  -2.86473791514540E-02  1.42002868405206E-10
 cg2d: Sum(rhs),rhsMax =  -2.87811325169071E-02  1.41342943795343E-10
 cg2d: Sum(rhs),rhsMax =  -2.89189777973491E-02  1.40669217598792E-10
 cg2d: Sum(rhs),rhsMax =  -2.90630329203329E-02  1.39971969780160E-10
 cg2d: Sum(rhs),rhsMax =  -2.92134157929037E-02  1.39251430931239E-10
 cg2d: Sum(rhs),rhsMax =  -2.93658495994000E-02  1.38528596707316E-10
 cg2d: Sum(rhs),rhsMax =  -2.95220573753771E-02  1.37795610555177E-10
 cg2d: Sum(rhs),rhsMax =  -2.96849057030838E-02  1.37039677550052E-10
 cg2d: Sum(rhs),rhsMax =  -2.98545339287495E-02  1.36261041597920E-10
 cg2d: Sum(rhs),rhsMax =  -3.00274499827810E-02  1.35476368355178E-10
 cg2d: Sum(rhs),rhsMax =  -3.02038024387459E-02  1.34685355137874E-10
 cg2d: Sum(rhs),rhsMax =  -3.03873056086543E-02  1.33872015310349E-10
 cg2d: Sum(rhs),rhsMax =  -3.05781240004420E-02  1.33036605726480E-10
 cg2d: Sum(rhs),rhsMax =  -3.07736392512485E-02  1.32191379022634E-10
(PID.TID 0000.0001)      cg2d_init_res =   3.72363261025780E-01
(PID.TID 0000.0001)      cg2d_iters(min,last) =      -1     551
(PID.TID 0000.0001)      cg2d_last_res =   9.68063007232643E-08
(PID.TID 0000.0001) // =======================================================
(PID.TID 0000.0001) // Begin MONITOR dynamic field statistics
(PID.TID 0000.0001) // =======================================================
(PID.TID 0000.0001) %MON time_tsnumber                =                  5280
(PID.TID 0000.0001) %MON time_secondsf                =   2.8512000000000E+07
(PID.TID 0000.0001) %MON dynstat_eta_max              =   2.3748307288937E-09
(PID.TID 0000.0001) %MON dynstat_eta_min              =  -1.4817068494868E-09
(PID.TID 0000.0001) %MON dynstat_eta_mean             =   3.9203901658480E-13
(PID.TID 0000.0001) %MON dynstat_eta_sd               =   8.2805602987531E-10
(PID.TID 0000.0001) %MON dynstat_eta_del2             =   5.3853433892860E-15
(PID.TID 0000.0001) %MON dynstat_uvel_max             =   9.6439261213191E-10
(PID.TID 0000.0001) %MON dynstat_uvel_min             =  -9.2661776030731E-10
(PID.TID 0000.0001) %MON dynstat_uvel_mean            =  -8.2939775986874E-14
(PID.TID 0000.0001) %MON dynstat_uvel_sd              =   3.2055427932195E-10
(PID.TID 0000.0001) %MON dynstat_uvel_del2            =   2.5227179296674E-14
(PID.TID 0000.0001) %MON dynstat_vvel_max             =   1.8200191495228E-09
(PID.TID 0000.0001) %MON dynstat_vvel_min             =  -1.3865875277512E-09
(PID.TID 0000.0001) %MON dynstat_vvel_mean            =   6.2188801972225E-15
(PID.TID 0000.0001) %MON dynstat_vvel_sd              =   6.0931115095736E-10
(PID.TID 0000.0001) %MON dynstat_vvel_del2            =   1.8978138028864E-14
(PID.TID 0000.0001) %MON dynstat_wvel_max             =   5.6939999329431E-15
(PID.TID 0000.0001) %MON dynstat_wvel_min             =  -4.1529430977461E-15
(PID.TID 0000.0001) %MON dynstat_wvel_mean            =   2.4130965709497E-29
(PID.TID 0000.0001) %MON dynstat_wvel_sd              =   2.2326513903645E-15
(PID.TID 0000.0001) %MON dynstat_wvel_del2            =   1.2394912813456E-20
(PID.TID 0000.0001) %MON dynstat_theta_max            =   2.0000000000000E+01
(PID.TID 0000.0001) %MON dynstat_theta_min            =   2.0000000000000E+01
(PID.TID 0000.0001) %MON dynstat_theta_mean           =   2.0000000000000E+01
(PID.TID 0000.0001) %MON dynstat_theta_sd             =   0.0000000000000E+00
(PID.TID 0000.0001) %MON dynstat_theta_del2           =   0.0000000000000E+00
(PID.TID 0000.0001) %MON dynstat_salt_max             =   3.0000000000000E+01
(PID.TID 0000.0001) %MON dynstat_salt_min             =   3.0000000000000E+01
(PID.TID 0000.0001) %MON dynstat_salt_mean            =   3.0000000000000E+01
(PID.TID 0000.0001) %MON dynstat_salt_sd              =   0.0000000000000E+00
(PID.TID 0000.0001) %MON dynstat_salt_del2            =   0.0000000000000E+00
(PID.TID 0000.0001) %MON trAdv_CFL_u_max              =   1.0435912494883E-09
(PID.TID 0000.0001) %MON trAdv_CFL_v_max              =   1.9698240586674E-09
(PID.TID 0000.0001) %MON trAdv_CFL_w_max              =   6.1684882058266E-15
(PID.TID 0000.0001) %MON advcfl_uvel_max              =   1.0415440211025E-09
(PID.TID 0000.0001) %MON advcfl_vvel_max              =   1.9656206814846E-09
(PID.TID 0000.0001) %MON advcfl_wvel_max              =   1.2299039855157E-14
(PID.TID 0000.0001) %MON advcfl_W_hf_max              =   0.0000000000000E+00
(PID.TID 0000.0001) %MON pe_b_mean                    =   6.7264908040360E-22
(PID.TID 0000.0001) %MON ke_max                       =   1.6567823792728E-18
(PID.TID 0000.0001) %MON ke_mean                      =   2.3604412040573E-19
(PID.TID 0000.0001) %MON ke_vol                       =   7.5645000000000E+15
(PID.TID 0000.0001) %MON vort_r_min                   =  -2.5151835083988E-14
(PID.TID 0000.0001) %MON vort_r_max                   =   5.2768410571513E-14
(PID.TID 0000.0001) %MON vort_a_mean                  =   8.2300000000000E-05
(PID.TID 0000.0001) %MON vort_a_sd                    =   7.1297555115562E-06
(PID.TID 0000.0001) %MON vort_p_mean                  =   8.3303658536586E-05
(PID.TID 0000.0001) %MON vort_p_sd                    =   1.7411470229681E-05
(PID.TID 0000.0001) %MON surfExpan_theta_mean         =   4.8592223767815E-28
(PID.TID 0000.0001) %MON surfExpan_salt_mean          =   7.2463671436974E-28
(PID.TID 0000.0001) // =======================================================
(PID.TID 0000.0001) // End MONITOR dynamic field statistics
(PID.TID 0000.0001) // =======================================================
 cg2d: Sum(rhs),rhsMax =  -3.09722457372564E-02  1.31343714300087E-10
 cg2d: Sum(rhs),rhsMax =  -3.11786079646019E-02  1.30474387574445E-10
 cg2d: Sum(rhs),rhsMax =  -3.13929202377986E-02  1.29583668273847E-10
 cg2d: Sum(rhs),rhsMax =  -3.16135308810896E-02  1.28679386053453E-10
 cg2d: Sum(rhs),rhsMax =  -3.18368951047448E-02  1.27776584777552E-10
 cg2d: Sum(rhs),rhsMax =  -3.20687345529315E-02  1.26852829247848E-10
 cg2d: Sum(rhs),rhsMax =  -3.23092792531451E-02  1.25908401076850E-10
 cg2d: Sum(rhs),rhsMax =  -3.25579417592802E-02  1.24946770340748E-10
 cg2d: Sum(rhs),rhsMax =  -3.28090475025683E-02  1.23990483198970E-10
 cg2d: Sum(rhs),rhsMax =  -3.30694873777674E-02  1.23013991370270E-10
 cg2d: Sum(rhs),rhsMax =  -3.33395347003976E-02  1.22017588222352E-10
 cg2d: Sum(rhs),rhsMax =  -3.36194775514110E-02  1.21001570921725E-10
 cg2d: Sum(rhs),rhsMax =  -3.39021901374322E-02  1.19992530276776E-10
 cg2d: Sum(rhs),rhsMax =  -3.41949756867243E-02  1.18965124941815E-10
 cg2d: Sum(rhs),rhsMax =  -3.44984523552908E-02  1.17918609519166E-10
 cg2d: Sum(rhs),rhsMax =  -3.48129644366925E-02  1.16853292252369E-10
(PID.TID 0000.0001)      cg2d_init_res =   4.17249175464346E-01
(PID.TID 0000.0001)      cg2d_iters(min,last) =      -1     551
(PID.TID 0000.0001)      cg2d_last_res =   9.62582802089733E-08
(PID.TID 0000.0001) // =======================================================
(PID.TID 0000.0001) // Begin MONITOR dynamic field statistics
(PID.TID 0000.0001) // =======================================================
(PID.TID 0000.0001) %MON time_tsnumber                =                  5296
(PID.TID 0000.0001) %MON time_secondsf                =   2.8598400000000E+07
(PID.TID 0000.0001) %MON dynstat_eta_max              =   2.4452103785388E-09
(PID.TID 0000.0001) %MON dynstat_eta_min              =  -1.2713587863966E-09
(PID.TID 0000.0001) %MON dynstat_eta_mean             =   3.9203898654662E-13
(PID.TID 0000.0001) %MON dynstat_eta_sd               =   8.2028359092036E-10
(PID.TID 0000.0001) %MON dynstat_eta_del2             =   5.3638245537951E-15
(PID.TID 0000.0001) %MON dynstat_uvel_max             =   9.2101947612833E-10
(PID.TID 0000.0001) %MON dynstat_uvel_min             =  -9.3961071674225E-10
(PID.TID 0000.0001) %MON dynstat_uvel_mean            =  -9.0046469401709E-14
(PID.TID 0000.0001) %MON dynstat_uvel_sd              =   3.2349886052631E-10
(PID.TID 0000.0001) %MON dynstat_uvel_del2            =   2.4366659609447E-14
(PID.TID 0000.0001) %MON dynstat_vvel_max             =   1.7461756648743E-09
(PID.TID 0000.0001) %MON dynstat_vvel_min             =  -1.4993469563691E-09
(PID.TID 0000.0001) %MON dynstat_vvel_mean            =   7.6497264196933E-15
(PID.TID 0000.0001) %MON dynstat_vvel_sd              =   6.0435985840398E-10
(PID.TID 0000.0001) %MON dynstat_vvel_del2            =   1.9303852039877E-14
(PID.TID 0000.0001) %MON dynstat_wvel_max             =   5.3805961389153E-15
(PID.TID 0000.0001) %MON dynstat_wvel_min             =  -4.6048974472468E-15
(PID.TID 0000.0001) %MON dynstat_wvel_mean            =  -2.9365630443276E-29
(PID.TID 0000.0001) %MON dynstat_wvel_sd              =   2.2302712185662E-15
(PID.TID 0000.0001) %MON dynstat_wvel_del2            =   1.2251054185790E-20
(PID.TID 0000.0001) %MON dynstat_theta_max            =   2.0000000000000E+01
(PID.TID 0000.0001) %MON dynstat_theta_min            =   2.0000000000000E+01
(PID.TID 0000.0001) %MON dynstat_theta_mean           =   2.0000000000000E+01
(PID.TID 0000.0001) %MON dynstat_theta_sd             =   0.0000000000000E+00
(PID.TID 0000.0001) %MON dynstat_theta_del2           =   0.0000000000000E+00
(PID.TID 0000.0001) %MON dynstat_salt_max             =   3.0000000000000E+01
(PID.TID 0000.0001) %MON dynstat_salt_min             =   3.0000000000000E+01
(PID.TID 0000.0001) %MON dynstat_salt_mean            =   3.0000000000000E+01
(PID.TID 0000.0001) %MON dynstat_salt_sd              =   0.0000000000000E+00
(PID.TID 0000.0001) %MON dynstat_salt_del2            =   0.0000000000000E+00
(PID.TID 0000.0001) %MON trAdv_CFL_u_max              =   1.0146831121262E-09
(PID.TID 0000.0001) %MON trAdv_CFL_v_max              =   1.8916814025010E-09
(PID.TID 0000.0001) %MON trAdv_CFL_w_max              =   5.8350130145657E-15
(PID.TID 0000.0001) %MON advcfl_uvel_max              =   1.0147795740816E-09
(PID.TID 0000.0001) %MON advcfl_vvel_max              =   1.8858697180642E-09
(PID.TID 0000.0001) %MON advcfl_wvel_max              =   1.1622087660057E-14
(PID.TID 0000.0001) %MON advcfl_W_hf_max              =   0.0000000000000E+00
(PID.TID 0000.0001) %MON pe_b_mean                    =   6.6008088208645E-22
(PID.TID 0000.0001) %MON ke_max                       =   1.5249733746631E-18
(PID.TID 0000.0001) %MON ke_mean                      =   2.3399609359309E-19
(PID.TID 0000.0001) %MON ke_vol                       =   7.5645000000000E+15
(PID.TID 0000.0001) %MON vort_r_min                   =  -2.9070787772511E-14
(PID.TID 0000.0001) %MON vort_r_max                   =   5.1446452410489E-14
(PID.TID 0000.0001) %MON vort_a_mean                  =   8.2300000000001E-05
(PID.TID 0000.0001) %MON vort_a_sd                    =   7.1297555115475E-06
(PID.TID 0000.0001) %MON vort_p_mean                  =   8.3303658536586E-05
(PID.TID 0000.0001) %MON vort_p_sd                    =   1.7411470229678E-05
(PID.TID 0000.0001) %MON surfExpan_theta_mean         =  -5.7940659178935E-28
(PID.TID 0000.0001) %MON surfExpan_salt_mean          =  -8.7666650324956E-28
(PID.TID 0000.0001) // =======================================================
(PID.TID 0000.0001) // End MONITOR dynamic field statistics
(PID.TID 0000.0001) // =======================================================
 cg2d: Sum(rhs),rhsMax =  -3.51325180609663E-02  1.15790433151698E-10
 cg2d: Sum(rhs),rhsMax =  -3.54621687622296E-02  1.14714062912313E-10
 cg2d: Sum(rhs),rhsMax =  -3.58038208143281E-02  1.13619422147280E-10
 cg2d: Sum(rhs),rhsMax =  -3.61578884958395E-02  1.12506829683774E-10
 cg2d: Sum(rhs),rhsMax =  -3.65196096506978E-02  1.11392465857404E-10
 cg2d: Sum(rhs),rhsMax =  -3.68916191170609E-02  1.10269200309456E-10
 cg2d: Sum(rhs),rhsMax =  -3.72772263118821E-02  1.09128540455411E-10
 cg2d: Sum(rhs),rhsMax =  -3.76769338114410E-02  1.07970815176597E-10
 cg2d: Sum(rhs),rhsMax =  -3.80873176956721E-02  1.06807448025532E-10
 cg2d: Sum(rhs),rhsMax =  -3.85084196575859E-02  1.05639472625496E-10
 cg2d: Sum(rhs),rhsMax =  -3.89450817923530E-02  1.04455014025761E-10
 cg2d: Sum(rhs),rhsMax =  -3.93979194277565E-02  1.03254410597646E-10
 cg2d: Sum(rhs),rhsMax =  -3.98649597966626E-02  1.02044721940020E-10
 cg2d: Sum(rhs),rhsMax =  -4.03434718728275E-02  1.00834332565705E-10
 cg2d: Sum(rhs),rhsMax =  -4.08400011027776E-02  9.96084041169481E-11
 cg2d: Sum(rhs),rhsMax =  -4.13552888503603E-02  9.83672838481940E-11
(PID.TID 0000.0001)      cg2d_init_res =   4.91707534820505E-01
(PID.TID 0000.0001)      cg2d_iters(min,last) =      -1     552
(PID.TID 0000.0001)      cg2d_last_res =   9.45812962265600E-08
(PID.TID 0000.0001) // =======================================================
(PID.TID 0000.0001) // Begin MONITOR dynamic field statistics
(PID.TID 0000.0001) // =======================================================
(PID.TID 0000.0001) %MON time_tsnumber                =                  5312
(PID.TID 0000.0001) %MON time_secondsf                =   2.8684800000000E+07
(PID.TID 0000.0001) %MON dynstat_eta_max              =   2.4775379112782E-09
(PID.TID 0000.0001) %MON dynstat_eta_min              =  -1.1158511665096E-09
(PID.TID 0000.0001) %MON dynstat_eta_mean             =   3.9203879565084E-13
(PID.TID 0000.0001) %MON dynstat_eta_sd               =   8.1515321707456E-10
(PID.TID 0000.0001) %MON dynstat_eta_del2             =   5.3413319578152E-15
(PID.TID 0000.0001) %MON dynstat_uvel_max             =   8.5536207392953E-10
(PID.TID 0000.0001) %MON dynstat_uvel_min             =  -9.2947600906593E-10
(PID.TID 0000.0001) %MON dynstat_uvel_mean            =  -9.1801244066211E-14
(PID.TID 0000.0001) %MON dynstat_uvel_sd              =   3.2337263942034E-10
(PID.TID 0000.0001) %MON dynstat_uvel_del2            =   2.3417453452645E-14
(PID.TID 0000.0001) %MON dynstat_vvel_max             =   1.6495024926021E-09
(PID.TID 0000.0001) %MON dynstat_vvel_min             =  -1.6042314997465E-09
(PID.TID 0000.0001) %MON dynstat_vvel_mean            =   9.0332092902279E-15
(PID.TID 0000.0001) %MON dynstat_vvel_sd              =   6.0103233527454E-10
(PID.TID 0000.0001) %MON dynstat_vvel_del2            =   1.9613382438252E-14
(PID.TID 0000.0001) %MON dynstat_wvel_max             =   4.9949895589152E-15
(PID.TID 0000.0001) %MON dynstat_wvel_min             =  -5.0175858337664E-15
(PID.TID 0000.0001) %MON dynstat_wvel_mean            =  -7.3660324021676E-29
(PID.TID 0000.0001) %MON dynstat_wvel_sd              =   2.2221954767312E-15
(PID.TID 0000.0001) %MON dynstat_wvel_del2            =   1.2129040590894E-20
(PID.TID 0000.0001) %MON dynstat_theta_max            =   2.0000000000000E+01
(PID.TID 0000.0001) %MON dynstat_theta_min            =   2.0000000000000E+01
(PID.TID 0000.0001) %MON dynstat_theta_mean           =   2.0000000000000E+01
(PID.TID 0000.0001) %MON dynstat_theta_sd             =   0.0000000000000E+00
(PID.TID 0000.0001) %MON dynstat_theta_del2           =   0.0000000000000E+00
(PID.TID 0000.0001) %MON dynstat_salt_max             =   3.0000000000000E+01
(PID.TID 0000.0001) %MON dynstat_salt_min             =   3.0000000000000E+01
(PID.TID 0000.0001) %MON dynstat_salt_mean            =   3.0000000000000E+01
(PID.TID 0000.0001) %MON dynstat_salt_sd              =   0.0000000000000E+00
(PID.TID 0000.0001) %MON dynstat_salt_del2            =   0.0000000000000E+00
(PID.TID 0000.0001) %MON trAdv_CFL_u_max              =   1.0053608378685E-09
(PID.TID 0000.0001) %MON trAdv_CFL_v_max              =   1.7884669801228E-09
(PID.TID 0000.0001) %MON trAdv_CFL_w_max              =   5.4229782616488E-15
(PID.TID 0000.0001) %MON advcfl_uvel_max              =   1.0038340897912E-09
(PID.TID 0000.0001) %MON advcfl_vvel_max              =   1.7814626920103E-09
(PID.TID 0000.0001) %MON advcfl_wvel_max              =   1.0837985400936E-14
(PID.TID 0000.0001) %MON advcfl_W_hf_max              =   0.0000000000000E+00
(PID.TID 0000.0001) %MON pe_b_mean                    =   6.5184989750238E-22
(PID.TID 0000.0001) %MON ke_max                       =   1.3611013217113E-18
(PID.TID 0000.0001) %MON ke_mean                      =   2.3195810247495E-19
(PID.TID 0000.0001) %MON ke_vol                       =   7.5645000000000E+15
(PID.TID 0000.0001) %MON vort_r_min                   =  -3.4261089941645E-14
(PID.TID 0000.0001) %MON vort_r_max                   =   4.8729485980215E-14
(PID.TID 0000.0001) %MON vort_a_mean                  =   8.2300000000001E-05
(PID.TID 0000.0001) %MON vort_a_sd                    =   7.1297555115501E-06
(PID.TID 0000.0001) %MON vort_p_mean                  =   8.3303658536586E-05
(PID.TID 0000.0001) %MON vort_p_sd                    =   1.7411470229674E-05
(PID.TID 0000.0001) %MON surfExpan_theta_mean         =  -1.4905347220373E-27
(PID.TID 0000.0001) %MON surfExpan_salt_mean          =  -2.2378393235456E-27
(PID.TID 0000.0001) // =======================================================
(PID.TID 0000.0001) // End MONITOR dynamic field statistics
(PID.TID 0000.0001) // =======================================================
 cg2d: Sum(rhs),rhsMax =  -4.18889361601847E-02  9.71141278821013E-11
 cg2d: Sum(rhs),rhsMax =  -4.24353168870386E-02  9.58637251089226E-11
 cg2d: Sum(rhs),rhsMax =  -4.24218762217876E-02  9.58940988511445E-11
 cg2d: Sum(rhs),rhsMax =  -4.23760130293218E-02  9.59978849615569E-11
 cg2d: Sum(rhs),rhsMax =  -4.23312482136803E-02  9.60994022943558E-11
 cg2d: Sum(rhs),rhsMax =  -4.22939531063581E-02  9.61841441085592E-11
 cg2d: Sum(rhs),rhsMax =  -4.22673631683287E-02  9.62446531289580E-11
 cg2d: Sum(rhs),rhsMax =  -4.22382689565020E-02  9.63109481356029E-11
 cg2d: Sum(rhs),rhsMax =  -4.22198288756508E-02  9.63530137499054E-11
 cg2d: Sum(rhs),rhsMax =  -4.22096906565837E-02  9.63761569351249E-11
 cg2d: Sum(rhs),rhsMax =  -4.21990039852306E-02  9.64005640973080E-11
 cg2d: Sum(rhs),rhsMax =  -4.21988272981904E-02  9.64009681536469E-11
 cg2d: Sum(rhs),rhsMax =  -4.22057293520665E-02  9.63852037876545E-11
 cg2d: Sum(rhs),rhsMax =  -4.22129347580151E-02  9.63687520171684E-11
 cg2d: Sum(rhs),rhsMax =  -4.22305547011101E-02  9.63285442428910E-11
 cg2d: Sum(rhs),rhsMax =  -4.22551220863627E-02  9.62725385965285E-11
(PID.TID 0000.0001)      cg2d_init_res =   4.99073903303556E-01
(PID.TID 0000.0001)      cg2d_iters(min,last) =      -1     549
(PID.TID 0000.0001)      cg2d_last_res =   9.92739281829749E-08
(PID.TID 0000.0001) // =======================================================
(PID.TID 0000.0001) // Begin MONITOR dynamic field statistics
(PID.TID 0000.0001) // =======================================================
(PID.TID 0000.0001) %MON time_tsnumber                =                  5328
(PID.TID 0000.0001) %MON time_secondsf                =   2.8771200000000E+07
(PID.TID 0000.0001) %MON dynstat_eta_max              =   2.4696726706122E-09
(PID.TID 0000.0001) %MON dynstat_eta_min              =  -1.3110037305993E-09
(PID.TID 0000.0001) %MON dynstat_eta_mean             =   3.9203883273203E-13
(PID.TID 0000.0001) %MON dynstat_eta_sd               =   8.1284567843099E-10
(PID.TID 0000.0001) %MON dynstat_eta_del2             =   5.3157023893236E-15
(PID.TID 0000.0001) %MON dynstat_uvel_max             =   7.7892192386480E-10
(PID.TID 0000.0001) %MON dynstat_uvel_min             =  -8.9429543742288E-10
(PID.TID 0000.0001) %MON dynstat_uvel_mean            =  -8.8155009083857E-14
(PID.TID 0000.0001) %MON dynstat_uvel_sd              =   3.1992048715655E-10
(PID.TID 0000.0001) %MON dynstat_uvel_del2            =   2.2532765299550E-14
(PID.TID 0000.0001) %MON dynstat_vvel_max             =   1.5344398617773E-09
(PID.TID 0000.0001) %MON dynstat_vvel_min             =  -1.6985663108807E-09
(PID.TID 0000.0001) %MON dynstat_vvel_mean            =   1.0281920863088E-14
(PID.TID 0000.0001) %MON dynstat_vvel_sd              =   5.9949099160675E-10
(PID.TID 0000.0001) %MON dynstat_vvel_del2            =   1.9839650606831E-14
(PID.TID 0000.0001) %MON dynstat_wvel_max             =   4.5504813764308E-15
(PID.TID 0000.0001) %MON dynstat_wvel_min             =  -5.3800407331939E-15
(PID.TID 0000.0001) %MON dynstat_wvel_mean            =   4.5911567220028E-29
(PID.TID 0000.0001) %MON dynstat_wvel_sd              =   2.2083712280469E-15
(PID.TID 0000.0001) %MON dynstat_wvel_del2            =   1.2031329577050E-20
(PID.TID 0000.0001) %MON dynstat_theta_max            =   2.0000000000000E+01
(PID.TID 0000.0001) %MON dynstat_theta_min            =   2.0000000000000E+01
(PID.TID 0000.0001) %MON dynstat_theta_mean           =   2.0000000000000E+01
(PID.TID 0000.0001) %MON dynstat_theta_sd             =   0.0000000000000E+00
(PID.TID 0000.0001) %MON dynstat_theta_del2           =   0.0000000000000E+00
(PID.TID 0000.0001) %MON dynstat_salt_max             =   3.0000000000000E+01
(PID.TID 0000.0001) %MON dynstat_salt_min             =   3.0000000000000E+01
(PID.TID 0000.0001) %MON dynstat_salt_mean            =   3.0000000000000E+01
(PID.TID 0000.0001) %MON dynstat_salt_sd              =   0.0000000000000E+00
(PID.TID 0000.0001) %MON dynstat_salt_del2            =   0.0000000000000E+00
(PID.TID 0000.0001) %MON trAdv_CFL_u_max              =   9.6895213960652E-10
(PID.TID 0000.0001) %MON trAdv_CFL_v_max              =   1.8285620245933E-09
(PID.TID 0000.0001) %MON trAdv_CFL_w_max              =   4.9463939086669E-15
(PID.TID 0000.0001) %MON advcfl_uvel_max              =   9.6583907241671E-10
(PID.TID 0000.0001) %MON advcfl_vvel_max              =   1.8344516157511E-09
(PID.TID 0000.0001) %MON advcfl_wvel_max              =   1.1620887983699E-14
(PID.TID 0000.0001) %MON advcfl_W_hf_max              =   0.0000000000000E+00
(PID.TID 0000.0001) %MON pe_b_mean                    =   6.4816460387625E-22
(PID.TID 0000.0001) %MON ke_max                       =   1.4512707483919E-18
(PID.TID 0000.0001) %MON ke_mean                      =   2.2993079445997E-19
(PID.TID 0000.0001) %MON ke_vol                       =   7.5645000000000E+15
(PID.TID 0000.0001) %MON vort_r_min                   =  -3.7498812210251E-14
(PID.TID 0000.0001) %MON vort_r_max                   =   4.4690144079140E-14
(PID.TID 0000.0001) %MON vort_a_mean                  =   8.2300000000000E-05
(PID.TID 0000.0001) %MON vort_a_sd                    =   7.1297555115625E-06
(PID.TID 0000.0001) %MON vort_p_mean                  =   8.3303658536585E-05
(PID.TID 0000.0001) %MON vort_p_sd                    =   1.7411470229673E-05
(PID.TID 0000.0001) %MON surfExpan_theta_mean         =   9.1009992216570E-28
(PID.TID 0000.0001) %MON surfExpan_salt_mean          =   1.3719517890429E-27
(PID.TID 0000.0001) // =======================================================
(PID.TID 0000.0001) // End MONITOR dynamic field statistics
(PID.TID 0000.0001) // =======================================================
 cg2d: Sum(rhs),rhsMax =  -4.22432203728531E-02  9.62996630388430E-11
 cg2d: Sum(rhs),rhsMax =  -4.22064597285540E-02  9.63835377238478E-11
 cg2d: Sum(rhs),rhsMax =  -4.21788349069363E-02  9.64466640955767E-11
 cg2d: Sum(rhs),rhsMax =  -4.21590341446752E-02  9.64919624191664E-11
 cg2d: Sum(rhs),rhsMax =  -4.21482657258030E-02  9.65166155508502E-11
 cg2d: Sum(rhs),rhsMax =  -4.21465140251832E-02  9.65206274252335E-11
 cg2d: Sum(rhs),rhsMax =  -4.21537730286075E-02  9.65040067371304E-11
 cg2d: Sum(rhs),rhsMax =  -4.21700463960645E-02  9.64667664141630E-11
 cg2d: Sum(rhs),rhsMax =  -4.21953471864919E-02  9.64089243269163E-11
 cg2d: Sum(rhs),rhsMax =  -4.22296981690097E-02  9.63305026297694E-11
 cg2d: Sum(rhs),rhsMax =  -4.22731318229195E-02  9.62315279644692E-11
 cg2d: Sum(rhs),rhsMax =  -4.23250083886191E-02  9.61135800622310E-11
 cg2d: Sum(rhs),rhsMax =  -4.23850391982730E-02  9.59774527429600E-11
 cg2d: Sum(rhs),rhsMax =  -4.24542470770231E-02  9.58209929699456E-11
 cg2d: Sum(rhs),rhsMax =  -4.25327014791336E-02  9.56442450510203E-11
 cg2d: Sum(rhs),rhsMax =  -4.26204820088714E-02  9.54472578347693E-11
(PID.TID 0000.0001)      cg2d_init_res =   5.00760421252410E-01
(PID.TID 0000.0001)      cg2d_iters(min,last) =      -1     538
(PID.TID 0000.0001)      cg2d_last_res =   9.58293779928065E-08
(PID.TID 0000.0001) // =======================================================
(PID.TID 0000.0001) // Begin MONITOR dynamic field statistics
(PID.TID 0000.0001) // =======================================================
(PID.TID 0000.0001) %MON time_tsnumber                =                  5344
(PID.TID 0000.0001) %MON time_secondsf                =   2.8857600000000E+07
(PID.TID 0000.0001) %MON dynstat_eta_max              =   2.4207518337551E-09
(PID.TID 0000.0001) %MON dynstat_eta_min              =  -1.5088696485628E-09
(PID.TID 0000.0001) %MON dynstat_eta_mean             =   3.9203885767667E-13
(PID.TID 0000.0001) %MON dynstat_eta_sd               =   8.1300563809278E-10
(PID.TID 0000.0001) %MON dynstat_eta_del2             =   5.2856331675558E-15
(PID.TID 0000.0001) %MON dynstat_uvel_max             =   7.4497680714905E-10
(PID.TID 0000.0001) %MON dynstat_uvel_min             =  -8.3596588114125E-10
(PID.TID 0000.0001) %MON dynstat_uvel_mean            =  -7.9362888501636E-14
(PID.TID 0000.0001) %MON dynstat_uvel_sd              =   3.1371612192273E-10
(PID.TID 0000.0001) %MON dynstat_uvel_del2            =   2.1873098271918E-14
(PID.TID 0000.0001) %MON dynstat_vvel_max             =   1.4066140519596E-09
(PID.TID 0000.0001) %MON dynstat_vvel_min             =  -1.7792000920368E-09
(PID.TID 0000.0001) %MON dynstat_vvel_mean            =   1.1311314486034E-14
(PID.TID 0000.0001) %MON dynstat_vvel_sd              =   5.9939461883549E-10
(PID.TID 0000.0001) %MON dynstat_vvel_del2            =   1.9945675555595E-14
(PID.TID 0000.0001) %MON dynstat_wvel_max             =   4.0624212807594E-15
(PID.TID 0000.0001) %MON dynstat_wvel_min             =  -5.6811724274963E-15
(PID.TID 0000.0001) %MON dynstat_wvel_mean            =   1.5443035986638E-28
(PID.TID 0000.0001) %MON dynstat_wvel_sd              =   2.1900018306671E-15
(PID.TID 0000.0001) %MON dynstat_wvel_del2            =   1.1950923196087E-20
(PID.TID 0000.0001) %MON dynstat_theta_max            =   2.0000000000000E+01
(PID.TID 0000.0001) %MON dynstat_theta_min            =   2.0000000000000E+01
(PID.TID 0000.0001) %MON dynstat_theta_mean           =   2.0000000000000E+01
(PID.TID 0000.0001) %MON dynstat_theta_sd             =   0.0000000000000E+00
(PID.TID 0000.0001) %MON dynstat_theta_del2           =   0.0000000000000E+00
(PID.TID 0000.0001) %MON dynstat_salt_max             =   3.0000000000000E+01
(PID.TID 0000.0001) %MON dynstat_salt_min             =   3.0000000000000E+01
(PID.TID 0000.0001) %MON dynstat_salt_mean            =   3.0000000000000E+01
(PID.TID 0000.0001) %MON dynstat_salt_sd              =   0.0000000000000E+00
(PID.TID 0000.0001) %MON dynstat_salt_del2            =   0.0000000000000E+00
(PID.TID 0000.0001) %MON trAdv_CFL_u_max              =   9.0740809029623E-10
(PID.TID 0000.0001) %MON trAdv_CFL_v_max              =   1.9163245708074E-09
(PID.TID 0000.0001) %MON trAdv_CFL_w_max              =   4.4218525052542E-15
(PID.TID 0000.0001) %MON advcfl_uvel_max              =   9.0284315163255E-10
(PID.TID 0000.0001) %MON advcfl_vvel_max              =   1.9215360993998E-09
(PID.TID 0000.0001) %MON advcfl_wvel_max              =   1.2271332443392E-14
(PID.TID 0000.0001) %MON advcfl_W_hf_max              =   0.0000000000000E+00
(PID.TID 0000.0001) %MON pe_b_mean                    =   6.4841973316107E-22
(PID.TID 0000.0001) %MON ke_max                       =   1.5910945883250E-18
(PID.TID 0000.0001) %MON ke_mean                      =   2.2791559260985E-19
(PID.TID 0000.0001) %MON ke_vol                       =   7.5645000000000E+15
(PID.TID 0000.0001) %MON vort_r_min                   =  -3.8640904490876E-14
(PID.TID 0000.0001) %MON vort_r_max                   =   3.9473568325876E-14
(PID.TID 0000.0001) %MON vort_a_mean                  =   8.2300000000000E-05
(PID.TID 0000.0001) %MON vort_a_sd                    =   7.1297555115529E-06
(PID.TID 0000.0001) %MON vort_p_mean                  =   8.3303658536586E-05
(PID.TID 0000.0001) %MON vort_p_sd                    =   1.7411470229659E-05
(PID.TID 0000.0001) %MON surfExpan_theta_mean         =   3.1110973505949E-27
(PID.TID 0000.0001) %MON surfExpan_salt_mean          =   4.6748291576439E-27
(PID.TID 0000.0001) // =======================================================
(PID.TID 0000.0001) // End MONITOR dynamic field statistics
(PID.TID 0000.0001) // =======================================================
 cg2d: Sum(rhs),rhsMax =  -4.27176786311258E-02  9.52300845200095E-11
 cg2d: Sum(rhs),rhsMax =  -4.28243918600751E-02  9.49927828853876E-11
 cg2d: Sum(rhs),rhsMax =  -4.29402465589995E-02  9.47364883638002E-11
 cg2d: Sum(rhs),rhsMax =  -4.30642386168641E-02  9.44637200058190E-11
 cg2d: Sum(rhs),rhsMax =  -4.31980364605061E-02  9.41711365222643E-11
 cg2d: Sum(rhs),rhsMax =  -4.33417820892746E-02  9.38588124804797E-11
 cg2d: Sum(rhs),rhsMax =  -4.34956294971096E-02  9.35268267648802E-11
 cg2d: Sum(rhs),rhsMax =  -4.36597451233611E-02  9.31752625581272E-11
 cg2d: Sum(rhs),rhsMax =  -4.38343081933284E-02  9.28042073152934E-11
 cg2d: Sum(rhs),rhsMax =  -4.40171144575872E-02  9.24187849180375E-11
 cg2d: Sum(rhs),rhsMax =  -4.42105600695379E-02  9.20144019245939E-11
 cg2d: Sum(rhs),rhsMax =  -4.44149690545209E-02  9.15909284718258E-11
 cg2d: Sum(rhs),rhsMax =  -4.46305720072436E-02  9.11484679725267E-11
 cg2d: Sum(rhs),rhsMax =  -4.48576150168305E-02  9.06871279666755E-11
 cg2d: Sum(rhs),rhsMax =  -4.50954480241815E-02  9.02088450515833E-11
 cg2d: Sum(rhs),rhsMax =  -4.53431592891198E-02  8.97160312451888E-11
(PID.TID 0000.0001)      cg2d_init_res =   5.30850730618290E-01
(PID.TID 0000.0001)      cg2d_iters(min,last) =      -1     538
(PID.TID 0000.0001)      cg2d_last_res =   9.76192587054029E-08
(PID.TID 0000.0001) // =======================================================
(PID.TID 0000.0001) // Begin MONITOR dynamic field statistics
(PID.TID 0000.0001) // =======================================================
(PID.TID 0000.0001) %MON time_tsnumber                =                  5360
(PID.TID 0000.0001) %MON time_secondsf                =   2.8944000000000E+07
(PID.TID 0000.0001) %MON dynstat_eta_max              =   2.3310119536564E-09
(PID.TID 0000.0001) %MON dynstat_eta_min              =  -1.7045420038028E-09
(PID.TID 0000.0001) %MON dynstat_eta_mean             =   3.9203887321674E-13
(PID.TID 0000.0001) %MON dynstat_eta_sd               =   8.1484979418392E-10
(PID.TID 0000.0001) %MON dynstat_eta_del2             =   5.2506465781582E-15
(PID.TID 0000.0001) %MON dynstat_uvel_max             =   6.9604056870352E-10
(PID.TID 0000.0001) %MON dynstat_uvel_min             =  -7.5460706271287E-10
(PID.TID 0000.0001) %MON dynstat_uvel_mean            =  -6.5967143090118E-14
(PID.TID 0000.0001) %MON dynstat_uvel_sd              =   3.0609111279609E-10
(PID.TID 0000.0001) %MON dynstat_uvel_del2            =   2.1560371006862E-14
(PID.TID 0000.0001) %MON dynstat_vvel_max             =   1.2711605629706E-09
(PID.TID 0000.0001) %MON dynstat_vvel_min             =  -1.8431886311951E-09
(PID.TID 0000.0001) %MON dynstat_vvel_mean            =   1.2044638230691E-14
(PID.TID 0000.0001) %MON dynstat_vvel_sd              =   5.9998430714928E-10
(PID.TID 0000.0001) %MON dynstat_vvel_del2            =   1.9936995406282E-14
(PID.TID 0000.0001) %MON dynstat_wvel_max             =   3.5480812465849E-15
(PID.TID 0000.0001) %MON dynstat_wvel_min             =  -5.9131662247247E-15
(PID.TID 0000.0001) %MON dynstat_wvel_mean            =   4.5593646736669E-29
(PID.TID 0000.0001) %MON dynstat_wvel_sd              =   2.1692656584736E-15
(PID.TID 0000.0001) %MON dynstat_wvel_del2            =   1.1891319234590E-20
(PID.TID 0000.0001) %MON dynstat_theta_max            =   2.0000000000000E+01
(PID.TID 0000.0001) %MON dynstat_theta_min            =   2.0000000000000E+01
(PID.TID 0000.0001) %MON dynstat_theta_mean           =   2.0000000000000E+01
(PID.TID 0000.0001) %MON dynstat_theta_sd             =   0.0000000000000E+00
(PID.TID 0000.0001) %MON dynstat_theta_del2           =   0.0000000000000E+00
(PID.TID 0000.0001) %MON dynstat_salt_max             =   3.0000000000000E+01
(PID.TID 0000.0001) %MON dynstat_salt_min             =   3.0000000000000E+01
(PID.TID 0000.0001) %MON dynstat_salt_mean            =   3.0000000000000E+01
(PID.TID 0000.0001) %MON dynstat_salt_sd              =   0.0000000000000E+00
(PID.TID 0000.0001) %MON dynstat_salt_del2            =   0.0000000000000E+00
(PID.TID 0000.0001) %MON trAdv_CFL_u_max              =   8.2120443140692E-10
(PID.TID 0000.0001) %MON trAdv_CFL_v_max              =   1.9870046137633E-09
(PID.TID 0000.0001) %MON trAdv_CFL_w_max              =   3.8671347219466E-15
(PID.TID 0000.0001) %MON advcfl_uvel_max              =   8.1497562772990E-10
(PID.TID 0000.0001) %MON advcfl_vvel_max              =   1.9906437216907E-09
(PID.TID 0000.0001) %MON advcfl_wvel_max              =   1.2772439045405E-14
(PID.TID 0000.0001) %MON advcfl_W_hf_max              =   0.0000000000000E+00
(PID.TID 0000.0001) %MON pe_b_mean                    =   6.5136471430130E-22
(PID.TID 0000.0001) %MON ke_max                       =   1.7064383866083E-18
(PID.TID 0000.0001) %MON ke_mean                      =   2.2591437185051E-19
(PID.TID 0000.0001) %MON ke_vol                       =   7.5645000000000E+15
(PID.TID 0000.0001) %MON vort_r_min                   =  -3.9673469420437E-14
(PID.TID 0000.0001) %MON vort_r_max                   =   3.3309887991260E-14
(PID.TID 0000.0001) %MON vort_a_mean                  =   8.2300000000000E-05
(PID.TID 0000.0001) %MON vort_a_sd                    =   7.1297555115528E-06
(PID.TID 0000.0001) %MON vort_p_mean                  =   8.3303658536586E-05
(PID.TID 0000.0001) %MON vort_p_sd                    =   1.7411470229647E-05
(PID.TID 0000.0001) %MON surfExpan_theta_mean         =   9.1587278006718E-28
(PID.TID 0000.0001) %MON surfExpan_salt_mean          =   1.3709560536362E-27
(PID.TID 0000.0001) // =======================================================
(PID.TID 0000.0001) // End MONITOR dynamic field statistics
(PID.TID 0000.0001) // =======================================================
 cg2d: Sum(rhs),rhsMax =  -4.56030216630364E-02  8.92047973947109E-11
 cg2d: Sum(rhs),rhsMax =  -4.58753437637686E-02  8.86752661687209E-11
 cg2d: Sum(rhs),rhsMax =  -4.61604534736688E-02  8.81275643056738E-11
 cg2d: Sum(rhs),rhsMax =  -4.63829253037801E-02  8.77048680375475E-11
 cg2d: Sum(rhs),rhsMax =  -4.60910704894123E-02  8.82602272443108E-11
 cg2d: Sum(rhs),rhsMax =  -4.58001504091570E-02  8.88208516996857E-11
 cg2d: Sum(rhs),rhsMax =  -4.55148921983773E-02  8.93775242132869E-11
 cg2d: Sum(rhs),rhsMax =  -4.52331741904733E-02  8.99341791959246E-11
 cg2d: Sum(rhs),rhsMax =  -4.49544541537374E-02  9.04917762439809E-11
 cg2d: Sum(rhs),rhsMax =  -4.46814809765471E-02  9.10446191461605E-11
 cg2d: Sum(rhs),rhsMax =  -4.44092360885932E-02  9.16027563028126E-11
 cg2d: Sum(rhs),rhsMax =  -4.41446447850786E-02  9.21517991726386E-11
 cg2d: Sum(rhs),rhsMax =  -4.38788069674961E-02  9.27100969976596E-11
 cg2d: Sum(rhs),rhsMax =  -4.36223204347689E-02  9.32552056017769E-11
 cg2d: Sum(rhs),rhsMax =  -4.33628165607754E-02  9.38132896821193E-11
 cg2d: Sum(rhs),rhsMax =  -4.31139741183992E-02  9.43547553997934E-11
(PID.TID 0000.0001)      cg2d_init_res =   5.03938714422694E-01
(PID.TID 0000.0001)      cg2d_iters(min,last) =      -1     547
(PID.TID 0000.0001)      cg2d_last_res =   9.71309159964705E-08
(PID.TID 0000.0001) // =======================================================
(PID.TID 0000.0001) // Begin MONITOR dynamic field statistics
(PID.TID 0000.0001) // =======================================================
(PID.TID 0000.0001) %MON time_tsnumber                =                  5376
(PID.TID 0000.0001) %MON time_secondsf                =   2.9030400000000E+07
(PID.TID 0000.0001) %MON dynstat_eta_max              =   2.2032285475163E-09
(PID.TID 0000.0001) %MON dynstat_eta_min              =  -1.8927840011633E-09
(PID.TID 0000.0001) %MON dynstat_eta_mean             =   3.9203889100763E-13
(PID.TID 0000.0001) %MON dynstat_eta_sd               =   8.1736590194310E-10
(PID.TID 0000.0001) %MON dynstat_eta_del2             =   5.2111266618401E-15
(PID.TID 0000.0001) %MON dynstat_uvel_max             =   6.8983106129103E-10
(PID.TID 0000.0001) %MON dynstat_uvel_min             =  -6.5266259008298E-10
(PID.TID 0000.0001) %MON dynstat_uvel_mean            =  -4.8764316188743E-14
(PID.TID 0000.0001) %MON dynstat_uvel_sd              =   2.9891970968119E-10
(PID.TID 0000.0001) %MON dynstat_uvel_del2            =   2.1633333671519E-14
(PID.TID 0000.0001) %MON dynstat_vvel_max             =   1.1329367063835E-09
(PID.TID 0000.0001) %MON dynstat_vvel_min             =  -1.8877083547817E-09
(PID.TID 0000.0001) %MON dynstat_vvel_mean            =   1.2417442390605E-14
(PID.TID 0000.0001) %MON dynstat_vvel_sd              =   6.0027735597301E-10
(PID.TID 0000.0001) %MON dynstat_vvel_del2            =   1.9865893829688E-14
(PID.TID 0000.0001) %MON dynstat_wvel_max             =   3.0259245389908E-15
(PID.TID 0000.0001) %MON dynstat_wvel_min             =  -6.0689049727336E-15
(PID.TID 0000.0001) %MON dynstat_wvel_mean            =   5.2542706155690E-30
(PID.TID 0000.0001) %MON dynstat_wvel_sd              =   2.1488503553343E-15
(PID.TID 0000.0001) %MON dynstat_wvel_del2            =   1.1853146065208E-20
(PID.TID 0000.0001) %MON dynstat_theta_max            =   2.0000000000000E+01
(PID.TID 0000.0001) %MON dynstat_theta_min            =   2.0000000000000E+01
(PID.TID 0000.0001) %MON dynstat_theta_mean           =   2.0000000000000E+01
(PID.TID 0000.0001) %MON dynstat_theta_sd             =   0.0000000000000E+00
(PID.TID 0000.0001) %MON dynstat_theta_del2           =   0.0000000000000E+00
(PID.TID 0000.0001) %MON dynstat_salt_max             =   3.0000000000000E+01
(PID.TID 0000.0001) %MON dynstat_salt_min             =   3.0000000000000E+01
(PID.TID 0000.0001) %MON dynstat_salt_mean            =   3.0000000000000E+01
(PID.TID 0000.0001) %MON dynstat_salt_sd              =   0.0000000000000E+00
(PID.TID 0000.0001) %MON dynstat_salt_del2            =   0.0000000000000E+00
(PID.TID 0000.0001) %MON trAdv_CFL_u_max              =   7.4010525091797E-10
(PID.TID 0000.0001) %MON trAdv_CFL_v_max              =   2.0365483596602E-09
(PID.TID 0000.0001) %MON trAdv_CFL_w_max              =   3.3028100202781E-15
(PID.TID 0000.0001) %MON advcfl_uvel_max              =   7.4501754619431E-10
(PID.TID 0000.0001) %MON advcfl_vvel_max              =   2.0387250231642E-09
(PID.TID 0000.0001) %MON advcfl_wvel_max              =   1.3108834741105E-14
(PID.TID 0000.0001) %MON advcfl_W_hf_max              =   0.0000000000000E+00
(PID.TID 0000.0001) %MON pe_b_mean                    =   6.5539351509805E-22
(PID.TID 0000.0001) %MON ke_max                       =   1.7887597849503E-18
(PID.TID 0000.0001) %MON ke_mean                      =   2.2392895400038E-19
(PID.TID 0000.0001) %MON ke_vol                       =   7.5645000000000E+15
(PID.TID 0000.0001) %MON vort_r_min                   =  -4.4059891524992E-14
(PID.TID 0000.0001) %MON vort_r_max                   =   3.8572845412678E-14
(PID.TID 0000.0001) %MON vort_a_mean                  =   8.2300000000001E-05
(PID.TID 0000.0001) %MON vort_a_sd                    =   7.1297555115462E-06
(PID.TID 0000.0001) %MON vort_p_mean                  =   8.3303658536586E-05
(PID.TID 0000.0001) %MON vort_p_sd                    =   1.7411470229628E-05
(PID.TID 0000.0001) %MON surfExpan_theta_mean         =   1.7130568110073E-28
(PID.TID 0000.0001) %MON surfExpan_salt_mean          =   3.0912531515586E-28
(PID.TID 0000.0001) // =======================================================
(PID.TID 0000.0001) // End MONITOR dynamic field statistics
(PID.TID 0000.0001) // =======================================================
 cg2d: Sum(rhs),rhsMax =  -4.28609870145210E-02  9.49116848594303E-11
 cg2d: Sum(rhs),rhsMax =  -4.26182265314231E-02  9.54523178139355E-11
 cg2d: Sum(rhs),rhsMax =  -4.23731052886665E-02  9.60044935898657E-11
 cg2d: Sum(rhs),rhsMax =  -4.21363448279503E-02  9.65439347462188E-11
 cg2d: Sum(rhs),rhsMax =  -4.18990157259184E-02  9.70907899898090E-11
 cg2d: Sum(rhs),rhsMax =  -4.16681682469313E-02  9.76286867778128E-11
 cg2d: Sum(rhs),rhsMax =  -4.14386132096135E-02  9.81695149036744E-11
 cg2d: Sum(rhs),rhsMax =  -4.12135867202305E-02  9.87055214299231E-11
 cg2d: Sum(rhs),rhsMax =  -4.09918366236924E-02  9.92394807114569E-11
 cg2d: Sum(rhs),rhsMax =  -4.07725344073804E-02  9.97732579099046E-11
 cg2d: Sum(rhs),rhsMax =  -4.05586626473308E-02  1.00299377138552E-10
 cg2d: Sum(rhs),rhsMax =  -4.03449835666181E-02  1.00830592859634E-10
 cg2d: Sum(rhs),rhsMax =  -4.01391002363320E-02  1.01347778075824E-10
 cg2d: Sum(rhs),rhsMax =  -3.99309391395081E-02  1.01876107115284E-10
 cg2d: Sum(rhs),rhsMax =  -3.97320730052343E-02  1.02386015528855E-10
 cg2d: Sum(rhs),rhsMax =  -3.95304334434602E-02  1.02908273441489E-10
(PID.TID 0000.0001)      cg2d_init_res =   4.62283131570467E-01
(PID.TID 0000.0001)      cg2d_iters(min,last) =      -1     547
(PID.TID 0000.0001)      cg2d_last_res =   9.65219027268614E-08
(PID.TID 0000.0001) // =======================================================
(PID.TID 0000.0001) // Begin MONITOR dynamic field statistics
(PID.TID 0000.0001) // =======================================================
(PID.TID 0000.0001) %MON time_tsnumber                =                  5392
(PID.TID 0000.0001) %MON time_secondsf                =   2.9116800000000E+07
(PID.TID 0000.0001) %MON dynstat_eta_max              =   2.0405060503292E-09
(PID.TID 0000.0001) %MON dynstat_eta_min              =  -2.0671035202977E-09
(PID.TID 0000.0001) %MON dynstat_eta_mean             =   3.9203890771376E-13
(PID.TID 0000.0001) %MON dynstat_eta_sd               =   8.1954288089670E-10
(PID.TID 0000.0001) %MON dynstat_eta_del2             =   5.1684148487495E-15
(PID.TID 0000.0001) %MON dynstat_uvel_max             =   7.6233409565123E-10
(PID.TID 0000.0001) %MON dynstat_uvel_min             =  -7.0054377607955E-10
(PID.TID 0000.0001) %MON dynstat_uvel_mean            =  -2.8758681408809E-14
(PID.TID 0000.0001) %MON dynstat_uvel_sd              =   2.9421348362883E-10
(PID.TID 0000.0001) %MON dynstat_uvel_del2            =   2.2030242638017E-14
(PID.TID 0000.0001) %MON dynstat_vvel_max             =   1.0961746166205E-09
(PID.TID 0000.0001) %MON dynstat_vvel_min             =  -1.9106562599881E-09
(PID.TID 0000.0001) %MON dynstat_vvel_mean            =   1.2381460773985E-14
(PID.TID 0000.0001) %MON dynstat_vvel_sd              =   5.9930888117719E-10
(PID.TID 0000.0001) %MON dynstat_vvel_del2            =   1.9825264244148E-14
(PID.TID 0000.0001) %MON dynstat_wvel_max             =   2.5206018892943E-15
(PID.TID 0000.0001) %MON dynstat_wvel_min             =  -6.1430859019107E-15
(PID.TID 0000.0001) %MON dynstat_wvel_mean            =   1.5516012703955E-28
(PID.TID 0000.0001) %MON dynstat_wvel_sd              =   2.1313777105495E-15
(PID.TID 0000.0001) %MON dynstat_wvel_del2            =   1.1839169289272E-20
(PID.TID 0000.0001) %MON dynstat_theta_max            =   2.0000000000000E+01
(PID.TID 0000.0001) %MON dynstat_theta_min            =   2.0000000000000E+01
(PID.TID 0000.0001) %MON dynstat_theta_mean           =   2.0000000000000E+01
(PID.TID 0000.0001) %MON dynstat_theta_sd             =   0.0000000000000E+00
(PID.TID 0000.0001) %MON dynstat_theta_del2           =   0.0000000000000E+00
(PID.TID 0000.0001) %MON dynstat_salt_max             =   3.0000000000000E+01
(PID.TID 0000.0001) %MON dynstat_salt_min             =   3.0000000000000E+01
(PID.TID 0000.0001) %MON dynstat_salt_mean            =   3.0000000000000E+01
(PID.TID 0000.0001) %MON dynstat_salt_sd              =   0.0000000000000E+00
(PID.TID 0000.0001) %MON dynstat_salt_del2            =   0.0000000000000E+00
(PID.TID 0000.0001) %MON trAdv_CFL_u_max              =   8.1835203641606E-10
(PID.TID 0000.0001) %MON trAdv_CFL_v_max              =   2.0624810471669E-09
(PID.TID 0000.0001) %MON trAdv_CFL_w_max              =   2.7550488692907E-15
(PID.TID 0000.0001) %MON advcfl_uvel_max              =   8.2332082330332E-10
(PID.TID 0000.0001) %MON advcfl_vvel_max              =   2.0635087607872E-09
(PID.TID 0000.0001) %MON advcfl_wvel_max              =   1.3269065548127E-14
(PID.TID 0000.0001) %MON advcfl_W_hf_max              =   0.0000000000000E+00
(PID.TID 0000.0001) %MON pe_b_mean                    =   6.5888932426384E-22
(PID.TID 0000.0001) %MON ke_max                       =   1.8314143042191E-18
(PID.TID 0000.0001) %MON ke_mean                      =   2.2196039420096E-19
(PID.TID 0000.0001) %MON ke_vol                       =   7.5645000000000E+15
(PID.TID 0000.0001) %MON vort_r_min                   =  -4.8379677047384E-14
(PID.TID 0000.0001) %MON vort_r_max                   =   4.2498987441783E-14
(PID.TID 0000.0001) %MON vort_a_mean                  =   8.2300000000000E-05
(PID.TID 0000.0001) %MON vort_a_sd                    =   7.1297555115649E-06
(PID.TID 0000.0001) %MON vort_p_mean                  =   8.3303658536585E-05
(PID.TID 0000.0001) %MON vort_p_sd                    =   1.7411470229621E-05
(PID.TID 0000.0001) %MON surfExpan_theta_mean         =   3.0400280656468E-27
(PID.TID 0000.0001) %MON surfExpan_salt_mean          =   4.6173798856300E-27
(PID.TID 0000.0001) // =======================================================
(PID.TID 0000.0001) // End MONITOR dynamic field statistics
(PID.TID 0000.0001) // =======================================================
 cg2d: Sum(rhs),rhsMax =  -3.93368304799070E-02  1.03414754472192E-10
 cg2d: Sum(rhs),rhsMax =  -3.91435214557295E-02  1.03925465183111E-10
 cg2d: Sum(rhs),rhsMax =  -3.89550736776658E-02  1.04428211865193E-10
 cg2d: Sum(rhs),rhsMax =  -3.87702764308871E-02  1.04925965766769E-10
 cg2d: Sum(rhs),rhsMax =  -3.85868734691370E-02  1.05424677961568E-10
 cg2d: Sum(rhs),rhsMax =  -3.84107860328169E-02  1.05907978982962E-10
 cg2d: Sum(rhs),rhsMax =  -3.82323156046431E-02  1.06402363187177E-10
 cg2d: Sum(rhs),rhsMax =  -3.80624035447505E-02  1.06877347820236E-10
 cg2d: Sum(rhs),rhsMax =  -3.78914972218380E-02  1.07359409120273E-10
 cg2d: Sum(rhs),rhsMax =  -3.77262797074894E-02  1.07829576488383E-10
 cg2d: Sum(rhs),rhsMax =  -3.75645236776631E-02  1.08293900109326E-10
 cg2d: Sum(rhs),rhsMax =  -3.74038906640979E-02  1.08758974326128E-10
 cg2d: Sum(rhs),rhsMax =  -3.72514155708848E-02  1.09204139875517E-10
 cg2d: Sum(rhs),rhsMax =  -3.70953471266318E-02  1.09663586463843E-10
 cg2d: Sum(rhs),rhsMax =  -3.69472355491492E-02  1.10103198705736E-10
 cg2d: Sum(rhs),rhsMax =  -3.68007633553811E-02  1.10541425134106E-10
(PID.TID 0000.0001)      cg2d_init_res =   4.31423744694745E-01
(PID.TID 0000.0001)      cg2d_iters(min,last) =      -1     547
(PID.TID 0000.0001)      cg2d_last_res =   8.94589416692561E-08
(PID.TID 0000.0001) // =======================================================
(PID.TID 0000.0001) // Begin MONITOR dynamic field statistics
(PID.TID 0000.0001) // =======================================================
(PID.TID 0000.0001) %MON time_tsnumber                =                  5408
(PID.TID 0000.0001) %MON time_secondsf                =   2.9203200000000E+07
(PID.TID 0000.0001) %MON dynstat_eta_max              =   1.8481915646050E-09
(PID.TID 0000.0001) %MON dynstat_eta_min              =  -2.2216793493428E-09
(PID.TID 0000.0001) %MON dynstat_eta_mean             =   3.9203892430801E-13
(PID.TID 0000.0001) %MON dynstat_eta_sd               =   8.2057462593978E-10
(PID.TID 0000.0001) %MON dynstat_eta_del2             =   5.1248977507593E-15
(PID.TID 0000.0001) %MON dynstat_uvel_max             =   8.3528526796336E-10
(PID.TID 0000.0001) %MON dynstat_uvel_min             =  -7.4904593621872E-10
(PID.TID 0000.0001) %MON dynstat_uvel_mean            =  -7.1045617160301E-15
(PID.TID 0000.0001) %MON dynstat_uvel_sd              =   2.9354447896793E-10
(PID.TID 0000.0001) %MON dynstat_uvel_del2            =   2.2611546478656E-14
(PID.TID 0000.0001) %MON dynstat_vvel_max             =   1.1871615411253E-09
(PID.TID 0000.0001) %MON dynstat_vvel_min             =  -1.9092823603218E-09
(PID.TID 0000.0001) %MON dynstat_vvel_mean            =   1.1907633592099E-14
(PID.TID 0000.0001) %MON dynstat_vvel_sd              =   5.9635886762988E-10
(PID.TID 0000.0001) %MON dynstat_vvel_del2            =   1.9929203057304E-14
(PID.TID 0000.0001) %MON dynstat_wvel_max             =   2.3938948938429E-15
(PID.TID 0000.0001) %MON dynstat_wvel_min             =  -6.1320974689694E-15
(PID.TID 0000.0001) %MON dynstat_wvel_mean            =  -2.0602555903326E-28
(PID.TID 0000.0001) %MON dynstat_wvel_sd              =   2.1188314930894E-15
(PID.TID 0000.0001) %MON dynstat_wvel_del2            =   1.1847506069273E-20
(PID.TID 0000.0001) %MON dynstat_theta_max            =   2.0000000000000E+01
(PID.TID 0000.0001) %MON dynstat_theta_min            =   2.0000000000000E+01
(PID.TID 0000.0001) %MON dynstat_theta_mean           =   2.0000000000000E+01
(PID.TID 0000.0001) %MON dynstat_theta_sd             =   0.0000000000000E+00
(PID.TID 0000.0001) %MON dynstat_theta_del2           =   0.0000000000000E+00
(PID.TID 0000.0001) %MON dynstat_salt_max             =   3.0000000000000E+01
(PID.TID 0000.0001) %MON dynstat_salt_min             =   3.0000000000000E+01
(PID.TID 0000.0001) %MON dynstat_salt_mean            =   3.0000000000000E+01
(PID.TID 0000.0001) %MON dynstat_salt_sd              =   0.0000000000000E+00
(PID.TID 0000.0001) %MON dynstat_salt_del2            =   0.0000000000000E+00
(PID.TID 0000.0001) %MON trAdv_CFL_u_max              =   8.9712597388642E-10
(PID.TID 0000.0001) %MON trAdv_CFL_v_max              =   2.0627984718569E-09
(PID.TID 0000.0001) %MON trAdv_CFL_w_max              =   2.5539650097273E-15
(PID.TID 0000.0001) %MON advcfl_uvel_max              =   9.0210808940043E-10
(PID.TID 0000.0001) %MON advcfl_vvel_max              =   2.0620249491475E-09
(PID.TID 0000.0001) %MON advcfl_wvel_max              =   1.3245330532974E-14
(PID.TID 0000.0001) %MON advcfl_W_hf_max              =   0.0000000000000E+00
(PID.TID 0000.0001) %MON pe_b_mean                    =   6.6054935589253E-22
(PID.TID 0000.0001) %MON ke_max                       =   1.8282578445397E-18
(PID.TID 0000.0001) %MON ke_mean                      =   2.2000813776377E-19
(PID.TID 0000.0001) %MON ke_vol                       =   7.5645000000000E+15
(PID.TID 0000.0001) %MON vort_r_min                   =  -5.2460616354363E-14
(PID.TID 0000.0001) %MON vort_r_max                   =   4.4659872583150E-14
(PID.TID 0000.0001) %MON vort_a_mean                  =   8.2300000000000E-05
(PID.TID 0000.0001) %MON vort_a_sd                    =   7.1297555115605E-06
(PID.TID 0000.0001) %MON vort_p_mean                  =   8.3303658536585E-05
(PID.TID 0000.0001) %MON vort_p_sd                    =   1.7411470229603E-05
(PID.TID 0000.0001) %MON surfExpan_theta_mean         =  -4.1539763287447E-27
(PID.TID 0000.0001) %MON surfExpan_salt_mean          =  -6.2036448951964E-27
(PID.TID 0000.0001) // =======================================================
(PID.TID 0000.0001) // End MONITOR dynamic field statistics
(PID.TID 0000.0001) // =======================================================
 cg2d: Sum(rhs),rhsMax =  -3.66569099940608E-02  1.10975225099345E-10
 cg2d: Sum(rhs),rhsMax =  -3.65202551623136E-02  1.11390482636123E-10
 cg2d: Sum(rhs),rhsMax =  -3.63805557080901E-02  1.11818216645289E-10
 cg2d: Sum(rhs),rhsMax =  -3.62485616856199E-02  1.12225387196448E-10
 cg2d: Sum(rhs),rhsMax =  -3.61182896844532E-02  1.12630163736698E-10
 cg2d: Sum(rhs),rhsMax =  -3.59902537069923E-02  1.13030847893847E-10
 cg2d: Sum(rhs),rhsMax =  -3.58697091175929E-02  1.13410702338047E-10
 cg2d: Sum(rhs),rhsMax =  -3.57460534549393E-02  1.13803022172273E-10
 cg2d: Sum(rhs),rhsMax =  -3.56292859798098E-02  1.14175987921768E-10
 cg2d: Sum(rhs),rhsMax =  -3.55160766073508E-02  1.14539930242877E-10
 cg2d: Sum(rhs),rhsMax =  -3.54029970114561E-02  1.14905778917360E-10
 cg2d: Sum(rhs),rhsMax =  -3.52971383404714E-02  1.15250389988044E-10
 cg2d: Sum(rhs),rhsMax =  -3.51909577574460E-02  1.15598131721479E-10
 cg2d: Sum(rhs),rhsMax =  -3.50886285601290E-02  1.15935251603368E-10
 cg2d: Sum(rhs),rhsMax =  -3.49932801806682E-02  1.16251147972078E-10
 cg2d: Sum(rhs),rhsMax =  -3.48944022005938E-02  1.16580561552793E-10
(PID.TID 0000.0001)      cg2d_init_res =   4.10674238183112E-01
(PID.TID 0000.0001)      cg2d_iters(min,last) =      -1     547
(PID.TID 0000.0001)      cg2d_last_res =   8.90187373299370E-08
(PID.TID 0000.0001) // =======================================================
(PID.TID 0000.0001) // Begin MONITOR dynamic field statistics
(PID.TID 0000.0001) // =======================================================
(PID.TID 0000.0001) %MON time_tsnumber                =                  5424
(PID.TID 0000.0001) %MON time_secondsf                =   2.9289600000000E+07
(PID.TID 0000.0001) %MON dynstat_eta_max              =   1.6329956753558E-09
(PID.TID 0000.0001) %MON dynstat_eta_min              =  -2.3519705400572E-09
(PID.TID 0000.0001) %MON dynstat_eta_mean             =   3.9203894135690E-13
(PID.TID 0000.0001) %MON dynstat_eta_sd               =   8.1999902775839E-10
(PID.TID 0000.0001) %MON dynstat_eta_del2             =   5.0839867624177E-15
(PID.TID 0000.0001) %MON dynstat_uvel_max             =   9.0835968013203E-10
(PID.TID 0000.0001) %MON dynstat_uvel_min             =  -7.9213646796962E-10
(PID.TID 0000.0001) %MON dynstat_uvel_mean            =   1.4959110248450E-14
(PID.TID 0000.0001) %MON dynstat_uvel_sd              =   2.9748211974368E-10
(PID.TID 0000.0001) %MON dynstat_uvel_del2            =   2.3206882769506E-14
(PID.TID 0000.0001) %MON dynstat_vvel_max             =   1.2793879285913E-09
(PID.TID 0000.0001) %MON dynstat_vvel_min             =  -1.8822855371964E-09
(PID.TID 0000.0001) %MON dynstat_vvel_mean            =   1.0988088406802E-14
(PID.TID 0000.0001) %MON dynstat_vvel_sd              =   5.9112011603122E-10
(PID.TID 0000.0001) %MON dynstat_vvel_del2            =   2.0280390632189E-14
(PID.TID 0000.0001) %MON dynstat_wvel_max             =   2.8657482613326E-15
(PID.TID 0000.0001) %MON dynstat_wvel_min             =  -6.0335882207108E-15
(PID.TID 0000.0001) %MON dynstat_wvel_mean            =  -2.2344528892937E-28
(PID.TID 0000.0001) %MON dynstat_wvel_sd              =   2.1121241472752E-15
(PID.TID 0000.0001) %MON dynstat_wvel_del2            =   1.1876733474302E-20
(PID.TID 0000.0001) %MON dynstat_theta_max            =   2.0000000000000E+01
(PID.TID 0000.0001) %MON dynstat_theta_min            =   2.0000000000000E+01
(PID.TID 0000.0001) %MON dynstat_theta_mean           =   2.0000000000000E+01
(PID.TID 0000.0001) %MON dynstat_theta_sd             =   0.0000000000000E+00
(PID.TID 0000.0001) %MON dynstat_theta_del2           =   0.0000000000000E+00
(PID.TID 0000.0001) %MON dynstat_salt_max             =   3.0000000000000E+01
(PID.TID 0000.0001) %MON dynstat_salt_min             =   3.0000000000000E+01
(PID.TID 0000.0001) %MON dynstat_salt_mean            =   3.0000000000000E+01
(PID.TID 0000.0001) %MON dynstat_salt_sd              =   0.0000000000000E+00
(PID.TID 0000.0001) %MON dynstat_salt_del2            =   0.0000000000000E+00
(PID.TID 0000.0001) %MON trAdv_CFL_u_max              =   9.7604598411375E-10
(PID.TID 0000.0001) %MON trAdv_CFL_v_max              =   2.0357686552885E-09
(PID.TID 0000.0001) %MON trAdv_CFL_w_max              =   3.0631863844444E-15
(PID.TID 0000.0001) %MON advcfl_uvel_max              =   9.8102845454260E-10
(PID.TID 0000.0001) %MON advcfl_vvel_max              =   2.0328683801721E-09
(PID.TID 0000.0001) %MON advcfl_wvel_max              =   1.3032550556735E-14
(PID.TID 0000.0001) %MON advcfl_W_hf_max              =   0.0000000000000E+00
(PID.TID 0000.0001) %MON pe_b_mean                    =   6.5962298659406E-22
(PID.TID 0000.0001) %MON ke_max                       =   1.7761823826017E-18
(PID.TID 0000.0001) %MON ke_mean                      =   2.1806922328186E-19
(PID.TID 0000.0001) %MON ke_vol                       =   7.5645000000000E+15
(PID.TID 0000.0001) %MON vort_r_min                   =  -5.5989012501642E-14
(PID.TID 0000.0001) %MON vort_r_max                   =   4.4784470110795E-14
(PID.TID 0000.0001) %MON vort_a_mean                  =   8.2300000000001E-05
(PID.TID 0000.0001) %MON vort_a_sd                    =   7.1297555115551E-06
(PID.TID 0000.0001) %MON vort_p_mean                  =   8.3303658536586E-05
(PID.TID 0000.0001) %MON vort_p_sd                    =   1.7411470229585E-05
(PID.TID 0000.0001) %MON surfExpan_theta_mean         =  -4.4725870244230E-27
(PID.TID 0000.0001) %MON surfExpan_salt_mean          =  -6.7247160048612E-27
(PID.TID 0000.0001) // =======================================================
(PID.TID 0000.0001) // End MONITOR dynamic field statistics
(PID.TID 0000.0001) // =======================================================
 cg2d: Sum(rhs),rhsMax =  -3.48025138060693E-02  1.16888367248711E-10
 cg2d: Sum(rhs),rhsMax =  -3.47145708974114E-02  1.17184482522362E-10
 cg2d: Sum(rhs),rhsMax =  -3.46259992256326E-02  1.17484235237807E-10
 cg2d: Sum(rhs),rhsMax =  -3.45442759010690E-02  1.17762174587587E-10
 cg2d: Sum(rhs),rhsMax =  -3.44639213515067E-02  1.18036743988821E-10
 cg2d: Sum(rhs),rhsMax =  -3.43853963874836E-02  1.18306301550511E-10
 cg2d: Sum(rhs),rhsMax =  -3.43135957229562E-02  1.18553855984089E-10
 cg2d: Sum(rhs),rhsMax =  -3.42410042538369E-02  1.18805192337840E-10
 cg2d: Sum(rhs),rhsMax =  -3.41722998500401E-02  1.19044054026015E-10
 cg2d: Sum(rhs),rhsMax =  -3.41102122852275E-02  1.19260738881103E-10
 cg2d: Sum(rhs),rhsMax =  -3.40455519526840E-02  1.19487242849295E-10
 cg2d: Sum(rhs),rhsMax =  -3.39864749953145E-02  1.19694941810049E-10
 cg2d: Sum(rhs),rhsMax =  -3.39334608088469E-02  1.19881941360437E-10
 cg2d: Sum(rhs),rhsMax =  -3.38773570309713E-02  1.20080476396972E-10
 cg2d: Sum(rhs),rhsMax =  -3.38277471963306E-02  1.20256579899199E-10
 cg2d: Sum(rhs),rhsMax =  -3.37829688327129E-02  1.20415976948685E-10
(PID.TID 0000.0001)      cg2d_init_res =   3.99373868862847E-01
(PID.TID 0000.0001)      cg2d_iters(min,last) =      -1     547
(PID.TID 0000.0001)      cg2d_last_res =   9.51424053899988E-08
(PID.TID 0000.0001) // =======================================================
(PID.TID 0000.0001) // Begin MONITOR dynamic field statistics
(PID.TID 0000.0001) // =======================================================
(PID.TID 0000.0001) %MON time_tsnumber                =                  5440
(PID.TID 0000.0001) %MON time_secondsf                =   2.9376000000000E+07
(PID.TID 0000.0001) %MON dynstat_eta_max              =   1.4032122328395E-09
(PID.TID 0000.0001) %MON dynstat_eta_min              =  -2.4538182914070E-09
(PID.TID 0000.0001) %MON dynstat_eta_mean             =   3.9203896012969E-13
(PID.TID 0000.0001) %MON dynstat_eta_sd               =   8.1775529656435E-10
(PID.TID 0000.0001) %MON dynstat_eta_del2             =   5.0498863094230E-15
(PID.TID 0000.0001) %MON dynstat_uvel_max             =   9.7770462012607E-10
(PID.TID 0000.0001) %MON dynstat_uvel_min             =  -8.2748365867771E-10
(PID.TID 0000.0001) %MON dynstat_uvel_mean            =   3.6178350655848E-14
(PID.TID 0000.0001) %MON dynstat_uvel_sd              =   3.0534826957234E-10
(PID.TID 0000.0001) %MON dynstat_uvel_del2            =   2.3660283423645E-14
(PID.TID 0000.0001) %MON dynstat_vvel_max             =   1.3698318118125E-09
(PID.TID 0000.0001) %MON dynstat_vvel_min             =  -1.8293395241830E-09
(PID.TID 0000.0001) %MON dynstat_vvel_mean            =   9.6369948243943E-15
(PID.TID 0000.0001) %MON dynstat_vvel_sd              =   5.8378279375637E-10
(PID.TID 0000.0001) %MON dynstat_vvel_del2            =   2.0933187984399E-14
(PID.TID 0000.0001) %MON dynstat_wvel_max             =   3.3406888169663E-15
(PID.TID 0000.0001) %MON dynstat_wvel_min             =  -5.8474328462621E-15
(PID.TID 0000.0001) %MON dynstat_wvel_mean            =   2.4582039391451E-29
(PID.TID 0000.0001) %MON dynstat_wvel_sd              =   2.1109205383966E-15
(PID.TID 0000.0001) %MON dynstat_wvel_del2            =   1.1920613937366E-20
(PID.TID 0000.0001) %MON dynstat_theta_max            =   2.0000000000000E+01
(PID.TID 0000.0001) %MON dynstat_theta_min            =   2.0000000000000E+01
(PID.TID 0000.0001) %MON dynstat_theta_mean           =   2.0000000000000E+01
(PID.TID 0000.0001) %MON dynstat_theta_sd             =   0.0000000000000E+00
(PID.TID 0000.0001) %MON dynstat_theta_del2           =   0.0000000000000E+00
(PID.TID 0000.0001) %MON dynstat_salt_max             =   3.0000000000000E+01
(PID.TID 0000.0001) %MON dynstat_salt_min             =   3.0000000000000E+01
(PID.TID 0000.0001) %MON dynstat_salt_mean            =   3.0000000000000E+01
(PID.TID 0000.0001) %MON dynstat_salt_sd              =   0.0000000000000E+00
(PID.TID 0000.0001) %MON dynstat_salt_del2            =   0.0000000000000E+00
(PID.TID 0000.0001) %MON trAdv_CFL_u_max              =   1.0515384672014E-09
(PID.TID 0000.0001) %MON trAdv_CFL_v_max              =   1.9802169786129E-09
(PID.TID 0000.0001) %MON trAdv_CFL_w_max              =   3.5759998489371E-15
(PID.TID 0000.0001) %MON advcfl_uvel_max              =   1.0559209897362E-09
(PID.TID 0000.0001) %MON advcfl_vvel_max              =   1.9756866861177E-09
(PID.TID 0000.0001) %MON advcfl_wvel_max              =   1.2630454947926E-14
(PID.TID 0000.0001) %MON advcfl_W_hf_max              =   0.0000000000000E+00
(PID.TID 0000.0001) %MON pe_b_mean                    =   6.5601812505729E-22
(PID.TID 0000.0001) %MON ke_max                       =   1.6772253214148E-18
(PID.TID 0000.0001) %MON ke_mean                      =   2.1613776375518E-19
(PID.TID 0000.0001) %MON ke_vol                       =   7.5645000000000E+15
(PID.TID 0000.0001) %MON vort_r_min                   =  -5.8617064783632E-14
(PID.TID 0000.0001) %MON vort_r_max                   =   4.2773524713835E-14
(PID.TID 0000.0001) %MON vort_a_mean                  =   8.2300000000001E-05
(PID.TID 0000.0001) %MON vort_a_sd                    =   7.1297555115494E-06
(PID.TID 0000.0001) %MON vort_p_mean                  =   8.3303658536586E-05
(PID.TID 0000.0001) %MON vort_p_sd                    =   1.7411470229569E-05
(PID.TID 0000.0001) %MON surfExpan_theta_mean         =   4.8304672626490E-28
(PID.TID 0000.0001) %MON surfExpan_salt_mean          =   7.1010295253632E-28
(PID.TID 0000.0001) // =======================================================
(PID.TID 0000.0001) // End MONITOR dynamic field statistics
(PID.TID 0000.0001) // =======================================================
 cg2d: Sum(rhs),rhsMax =  -3.37362733481205E-02  1.20582649054928E-10
 cg2d: Sum(rhs),rhsMax =  -3.36960029811093E-02  1.20726758710986E-10
 cg2d: Sum(rhs),rhsMax =  -3.36596147061969E-02  1.20857272703178E-10
 cg2d: Sum(rhs),rhsMax =  -3.36222171951091E-02  1.20991700914044E-10
 cg2d: Sum(rhs),rhsMax =  -3.35911913559486E-02  1.21103452866856E-10
 cg2d: Sum(rhs),rhsMax =  -3.35633456626504E-02  1.21203926272259E-10
 cg2d: Sum(rhs),rhsMax =  -3.35351688951630E-02  1.21305764073896E-10
 cg2d: Sum(rhs),rhsMax =  -3.35133255883821E-02  1.21384829150981E-10
 cg2d: Sum(rhs),rhsMax =  -3.34941744647454E-02  1.21454234332368E-10
 cg2d: Sum(rhs),rhsMax =  -3.34751746044594E-02  1.21523169811750E-10
 cg2d: Sum(rhs),rhsMax =  -3.34624851315564E-02  1.21569253599535E-10
 cg2d: Sum(rhs),rhsMax =  -3.34521814351070E-02  1.21606698869333E-10
 cg2d: Sum(rhs),rhsMax =  -3.34423484967728E-02  1.21642454843265E-10
 cg2d: Sum(rhs),rhsMax =  -3.34388180936073E-02  1.21655297994802E-10
 cg2d: Sum(rhs),rhsMax =  -3.34375168663197E-02  1.21660032582578E-10
 cg2d: Sum(rhs),rhsMax =  -3.34368754515208E-02  1.21662366696192E-10
(PID.TID 0000.0001)      cg2d_init_res =   3.96857678087167E-01
(PID.TID 0000.0001)      cg2d_iters(min,last) =      -1     549
(PID.TID 0000.0001)      cg2d_last_res =   9.11054170658651E-08
(PID.TID 0000.0001) // =======================================================
(PID.TID 0000.0001) // Begin MONITOR dynamic field statistics
(PID.TID 0000.0001) // =======================================================
(PID.TID 0000.0001) %MON time_tsnumber                =                  5456
(PID.TID 0000.0001) %MON time_secondsf                =   2.9462400000000E+07
(PID.TID 0000.0001) %MON dynstat_eta_max              =   1.1673637375083E-09
(PID.TID 0000.0001) %MON dynstat_eta_min              =  -2.5236801620342E-09
(PID.TID 0000.0001) %MON dynstat_eta_mean             =   3.9203897979755E-13
(PID.TID 0000.0001) %MON dynstat_eta_sd               =   8.1415913394990E-10
(PID.TID 0000.0001) %MON dynstat_eta_del2             =   5.0270848851442E-15
(PID.TID 0000.0001) %MON dynstat_uvel_max             =   1.0349146183903E-09
(PID.TID 0000.0001) %MON dynstat_uvel_min             =  -8.5276820111725E-10
(PID.TID 0000.0001) %MON dynstat_uvel_mean            =   5.5353925897618E-14
(PID.TID 0000.0001) %MON dynstat_uvel_sd              =   3.1544506939945E-10
(PID.TID 0000.0001) %MON dynstat_uvel_del2            =   2.3860212894168E-14
(PID.TID 0000.0001) %MON dynstat_vvel_max             =   1.4552281791613E-09
(PID.TID 0000.0001) %MON dynstat_vvel_min             =  -1.7500083479788E-09
(PID.TID 0000.0001) %MON dynstat_vvel_mean            =   7.8902351132534E-15
(PID.TID 0000.0001) %MON dynstat_vvel_sd              =   5.7502424020561E-10
(PID.TID 0000.0001) %MON dynstat_vvel_del2            =   2.1869820623615E-14
(PID.TID 0000.0001) %MON dynstat_wvel_max             =   3.8049677839047E-15
(PID.TID 0000.0001) %MON dynstat_wvel_min             =  -5.5770133683408E-15
(PID.TID 0000.0001) %MON dynstat_wvel_mean            =  -3.3492401836238E-29
(PID.TID 0000.0001) %MON dynstat_wvel_sd              =   2.1137678110589E-15
(PID.TID 0000.0001) %MON dynstat_wvel_del2            =   1.1965294846542E-20
(PID.TID 0000.0001) %MON dynstat_theta_max            =   2.0000000000000E+01
(PID.TID 0000.0001) %MON dynstat_theta_min            =   2.0000000000000E+01
(PID.TID 0000.0001) %MON dynstat_theta_mean           =   2.0000000000000E+01
(PID.TID 0000.0001) %MON dynstat_theta_sd             =   0.0000000000000E+00
(PID.TID 0000.0001) %MON dynstat_theta_del2           =   0.0000000000000E+00
(PID.TID 0000.0001) %MON dynstat_salt_max             =   3.0000000000000E+01
(PID.TID 0000.0001) %MON dynstat_salt_min             =   3.0000000000000E+01
(PID.TID 0000.0001) %MON dynstat_salt_mean            =   3.0000000000000E+01
(PID.TID 0000.0001) %MON dynstat_salt_sd              =   0.0000000000000E+00
(PID.TID 0000.0001) %MON dynstat_salt_del2            =   0.0000000000000E+00
(PID.TID 0000.0001) %MON trAdv_CFL_u_max              =   1.1144308541775E-09
(PID.TID 0000.0001) %MON trAdv_CFL_v_max              =   1.8959611306702E-09
(PID.TID 0000.0001) %MON trAdv_CFL_w_max              =   4.0784813839179E-15
(PID.TID 0000.0001) %MON advcfl_uvel_max              =   1.1177077878616E-09
(PID.TID 0000.0001) %MON advcfl_vvel_max              =   1.8900090158171E-09
(PID.TID 0000.0001) %MON advcfl_wvel_max              =   1.2046348875616E-14
(PID.TID 0000.0001) %MON advcfl_W_hf_max              =   0.0000000000000E+00
(PID.TID 0000.0001) %MON pe_b_mean                    =   6.5026099935593E-22
(PID.TID 0000.0001) %MON ke_max                       =   1.5350425675757E-18
(PID.TID 0000.0001) %MON ke_mean                      =   2.1420493004248E-19
(PID.TID 0000.0001) %MON ke_vol                       =   7.5645000000000E+15
(PID.TID 0000.0001) %MON vort_r_min                   =  -6.0075844358453E-14
(PID.TID 0000.0001) %MON vort_r_max                   =   3.8687297411328E-14
(PID.TID 0000.0001) %MON vort_a_mean                  =   8.2299999999999E-05
(PID.TID 0000.0001) %MON vort_a_sd                    =   7.1297555115692E-06
(PID.TID 0000.0001) %MON vort_p_mean                  =   8.3303658536585E-05
(PID.TID 0000.0001) %MON vort_p_sd                    =   1.7411470229566E-05
(PID.TID 0000.0001) %MON surfExpan_theta_mean         =  -6.7358798867888E-28
(PID.TID 0000.0001) %MON surfExpan_salt_mean          =  -9.9130344628284E-28
(PID.TID 0000.0001) // =======================================================
(PID.TID 0000.0001) // End MONITOR dynamic field statistics
(PID.TID 0000.0001) // =======================================================
 cg2d: Sum(rhs),rhsMax =  -3.34425441262388E-02  1.21641744681510E-10
 cg2d: Sum(rhs),rhsMax =  -3.34504038213450E-02  1.21613163390790E-10
 cg2d: Sum(rhs),rhsMax =  -3.34590140748404E-02  1.21581868137289E-10
 cg2d: Sum(rhs),rhsMax =  -3.34739576302360E-02  1.21527591513230E-10
 cg2d: Sum(rhs),rhsMax =  -3.34911415352210E-02  1.21465237530297E-10
 cg2d: Sum(rhs),rhsMax =  -3.35091002304921E-02  1.21400140399173E-10
 cg2d: Sum(rhs),rhsMax =  -3.35334315490769E-02  1.21312054768021E-10
 cg2d: Sum(rhs),rhsMax =  -3.35601089891868E-02  1.21215622344213E-10
 cg2d: Sum(rhs),rhsMax =  -3.35875510599035E-02  1.21116585788028E-10
 cg2d: Sum(rhs),rhsMax =  -3.36214216952897E-02  1.20994571819883E-10
 cg2d: Sum(rhs),rhsMax =  -3.36577694270473E-02  1.20863907610437E-10
 cg2d: Sum(rhs),rhsMax =  -3.36948696439823E-02  1.20730829073271E-10
 cg2d: Sum(rhs),rhsMax =  -3.37384716926094E-02  1.20574802481924E-10
 cg2d: Sum(rhs),rhsMax =  -3.37846752518831E-02  1.20409906073339E-10
 cg2d: Sum(rhs),rhsMax =  -3.38316503052531E-02  1.20242717982786E-10
 cg2d: Sum(rhs),rhsMax =  -3.38852186490879E-02  1.20052629493078E-10
(PID.TID 0000.0001)      cg2d_init_res =   4.03172520520891E-01
(PID.TID 0000.0001)      cg2d_iters(min,last) =      -1     549
(PID.TID 0000.0001)      cg2d_last_res =   9.79554698516471E-08
(PID.TID 0000.0001) // =======================================================
(PID.TID 0000.0001) // Begin MONITOR dynamic field statistics
(PID.TID 0000.0001) // =======================================================
(PID.TID 0000.0001) %MON time_tsnumber                =                  5472
(PID.TID 0000.0001) %MON time_secondsf                =   2.9548800000000E+07
(PID.TID 0000.0001) %MON dynstat_eta_max              =   9.3910864361446E-10
(PID.TID 0000.0001) %MON dynstat_eta_min              =  -2.5588319948927E-09
(PID.TID 0000.0001) %MON dynstat_eta_mean             =   3.9203899905360E-13
(PID.TID 0000.0001) %MON dynstat_eta_sd               =   8.0980640375577E-10
(PID.TID 0000.0001) %MON dynstat_eta_del2             =   5.0195836907657E-15
(PID.TID 0000.0001) %MON dynstat_uvel_max             =   1.0737496288247E-09
(PID.TID 0000.0001) %MON dynstat_uvel_min             =  -8.6604267337929E-10
(PID.TID 0000.0001) %MON dynstat_uvel_mean            =   7.1407557415972E-14
(PID.TID 0000.0001) %MON dynstat_uvel_sd              =   3.2559135326769E-10
(PID.TID 0000.0001) %MON dynstat_uvel_del2            =   2.3755169100226E-14
(PID.TID 0000.0001) %MON dynstat_vvel_max             =   1.5323462076519E-09
(PID.TID 0000.0001) %MON dynstat_vvel_min             =  -1.6455902790249E-09
(PID.TID 0000.0001) %MON dynstat_vvel_mean            =   5.8039127100842E-15
(PID.TID 0000.0001) %MON dynstat_vvel_sd              =   5.6589943012175E-10
(PID.TID 0000.0001) %MON dynstat_vvel_del2            =   2.3002547739934E-14
(PID.TID 0000.0001) %MON dynstat_wvel_max             =   4.2457128618389E-15
(PID.TID 0000.0001) %MON dynstat_wvel_min             =  -5.2291649726977E-15
(PID.TID 0000.0001) %MON dynstat_wvel_mean            =  -1.2286996487981E-28
(PID.TID 0000.0001) %MON dynstat_wvel_sd              =   2.1184851979339E-15
(PID.TID 0000.0001) %MON dynstat_wvel_del2            =   1.2005627852986E-20
(PID.TID 0000.0001) %MON dynstat_theta_max            =   2.0000000000000E+01
(PID.TID 0000.0001) %MON dynstat_theta_min            =   2.0000000000000E+01
(PID.TID 0000.0001) %MON dynstat_theta_mean           =   2.0000000000000E+01
(PID.TID 0000.0001) %MON dynstat_theta_sd             =   0.0000000000000E+00
(PID.TID 0000.0001) %MON dynstat_theta_del2           =   0.0000000000000E+00
(PID.TID 0000.0001) %MON dynstat_salt_max             =   3.0000000000000E+01
(PID.TID 0000.0001) %MON dynstat_salt_min             =   3.0000000000000E+01
(PID.TID 0000.0001) %MON dynstat_salt_mean            =   3.0000000000000E+01
(PID.TID 0000.0001) %MON dynstat_salt_sd              =   0.0000000000000E+00
(PID.TID 0000.0001) %MON dynstat_salt_del2            =   0.0000000000000E+00
(PID.TID 0000.0001) %MON trAdv_CFL_u_max              =   1.1576248155360E-09
(PID.TID 0000.0001) %MON trAdv_CFL_v_max              =   1.7851980068198E-09
(PID.TID 0000.0001) %MON trAdv_CFL_w_max              =   4.5569961588221E-15
(PID.TID 0000.0001) %MON advcfl_uvel_max              =   1.1596495991306E-09
(PID.TID 0000.0001) %MON advcfl_vvel_max              =   1.7772375013469E-09
(PID.TID 0000.0001) %MON advcfl_wvel_max              =   1.1294996341027E-14
(PID.TID 0000.0001) %MON advcfl_W_hf_max              =   0.0000000000000E+00
(PID.TID 0000.0001) %MON pe_b_mean                    =   6.4332662051852E-22
(PID.TID 0000.0001) %MON ke_max                       =   1.3575194228057E-18
(PID.TID 0000.0001) %MON ke_mean                      =   2.1225958408444E-19
(PID.TID 0000.0001) %MON ke_vol                       =   7.5645000000000E+15
(PID.TID 0000.0001) %MON vort_r_min                   =  -6.0196376841874E-14
(PID.TID 0000.0001) %MON vort_r_max                   =   3.5379371227400E-14
(PID.TID 0000.0001) %MON vort_a_mean                  =   8.2300000000000E-05
(PID.TID 0000.0001) %MON vort_a_sd                    =   7.1297555115602E-06
(PID.TID 0000.0001) %MON vort_p_mean                  =   8.3303658536585E-05
(PID.TID 0000.0001) %MON vort_p_sd                    =   1.7411470229554E-05
(PID.TID 0000.0001) %MON surfExpan_theta_mean         =  -2.4481472074939E-27
(PID.TID 0000.0001) %MON surfExpan_salt_mean          =  -3.6551288464236E-27
(PID.TID 0000.0001) // =======================================================
(PID.TID 0000.0001) // End MONITOR dynamic field statistics
(PID.TID 0000.0001) // =======================================================
 cg2d: Sum(rhs),rhsMax =  -3.39414737399595E-02  1.19853652933798E-10
 cg2d: Sum(rhs),rhsMax =  -3.39985846804909E-02  1.19652322675154E-10
 cg2d: Sum(rhs),rhsMax =  -3.40623995787802E-02  1.19428157971568E-10
 cg2d: Sum(rhs),rhsMax =  -3.41289135525301E-02  1.19195404343645E-10
 cg2d: Sum(rhs),rhsMax =  -3.41964686715006E-02  1.18959934217706E-10
 cg2d: Sum(rhs),rhsMax =  -3.42708588096342E-02  1.18701713874104E-10
 cg2d: Sum(rhs),rhsMax =  -3.43478522235426E-02  1.18435635041737E-10
 cg2d: Sum(rhs),rhsMax =  -3.44262102402334E-02  1.18166062218765E-10
 cg2d: Sum(rhs),rhsMax =  -3.45115562303728E-02  1.17873841613815E-10
 cg2d: Sum(rhs),rhsMax =  -3.45992643729102E-02  1.17575035192843E-10
 cg2d: Sum(rhs),rhsMax =  -3.46888384090028E-02  1.17271431577239E-10
 cg2d: Sum(rhs),rhsMax =  -3.47855768947744E-02  1.16945300781311E-10
 cg2d: Sum(rhs),rhsMax =  -3.48842515802796E-02  1.16614505995968E-10
 cg2d: Sum(rhs),rhsMax =  -3.49855133992334E-02  1.16276978208962E-10
 cg2d: Sum(rhs),rhsMax =  -3.50941416801098E-02  1.15917061866555E-10
 cg2d: Sum(rhs),rhsMax =  -3.52040530749242E-02  1.15555154863639E-10
(PID.TID 0000.0001)      cg2d_init_res =   4.18949924430291E-01
(PID.TID 0000.0001)      cg2d_iters(min,last) =      -1     550
(PID.TID 0000.0001)      cg2d_last_res =   8.90192679414933E-08
(PID.TID 0000.0001) // =======================================================
(PID.TID 0000.0001) // Begin MONITOR dynamic field statistics
(PID.TID 0000.0001) // =======================================================
(PID.TID 0000.0001) %MON time_tsnumber                =                  5488
(PID.TID 0000.0001) %MON time_secondsf                =   2.9635200000000E+07
(PID.TID 0000.0001) %MON dynstat_eta_max              =   8.6368945171972E-10
(PID.TID 0000.0001) %MON dynstat_eta_min              =  -2.5571100048749E-09
(PID.TID 0000.0001) %MON dynstat_eta_mean             =   3.9203901872246E-13
(PID.TID 0000.0001) %MON dynstat_eta_sd               =   8.0542499708686E-10
(PID.TID 0000.0001) %MON dynstat_eta_del2             =   5.0299882308804E-15
(PID.TID 0000.0001) %MON dynstat_uvel_max             =   1.0926633538349E-09
(PID.TID 0000.0001) %MON dynstat_uvel_min             =  -8.6597520562800E-10
(PID.TID 0000.0001) %MON dynstat_uvel_mean            =   8.3440898108406E-14
(PID.TID 0000.0001) %MON dynstat_uvel_sd              =   3.3367262996531E-10
(PID.TID 0000.0001) %MON dynstat_uvel_del2            =   2.3359961123618E-14
(PID.TID 0000.0001) %MON dynstat_vvel_max             =   1.5993013802379E-09
(PID.TID 0000.0001) %MON dynstat_vvel_min             =  -1.5182494273046E-09
(PID.TID 0000.0001) %MON dynstat_vvel_mean            =   3.4517784986858E-15
(PID.TID 0000.0001) %MON dynstat_vvel_sd              =   5.5763641336594E-10
(PID.TID 0000.0001) %MON dynstat_vvel_del2            =   2.4198091181883E-14
(PID.TID 0000.0001) %MON dynstat_wvel_max             =   4.6495991265494E-15
(PID.TID 0000.0001) %MON dynstat_wvel_min             =  -4.8127907620321E-15
(PID.TID 0000.0001) %MON dynstat_wvel_mean            =  -2.4568195729962E-29
(PID.TID 0000.0001) %MON dynstat_wvel_sd              =   2.1226934428811E-15
(PID.TID 0000.0001) %MON dynstat_wvel_del2            =   1.2022562288520E-20
(PID.TID 0000.0001) %MON dynstat_theta_max            =   2.0000000000000E+01
(PID.TID 0000.0001) %MON dynstat_theta_min            =   2.0000000000000E+01
(PID.TID 0000.0001) %MON dynstat_theta_mean           =   2.0000000000000E+01
(PID.TID 0000.0001) %MON dynstat_theta_sd             =   0.0000000000000E+00
(PID.TID 0000.0001) %MON dynstat_theta_del2           =   0.0000000000000E+00
(PID.TID 0000.0001) %MON dynstat_salt_max             =   3.0000000000000E+01
(PID.TID 0000.0001) %MON dynstat_salt_min             =   3.0000000000000E+01
(PID.TID 0000.0001) %MON dynstat_salt_mean            =   3.0000000000000E+01
(PID.TID 0000.0001) %MON dynstat_salt_sd              =   0.0000000000000E+00
(PID.TID 0000.0001) %MON dynstat_salt_del2            =   0.0000000000000E+00
(PID.TID 0000.0001) %MON trAdv_CFL_u_max              =   1.1795009676444E-09
(PID.TID 0000.0001) %MON trAdv_CFL_v_max              =   1.7228903625311E-09
(PID.TID 0000.0001) %MON trAdv_CFL_w_max              =   4.9955503497845E-15
(PID.TID 0000.0001) %MON advcfl_uvel_max              =   1.1800764221417E-09
(PID.TID 0000.0001) %MON advcfl_vvel_max              =   1.7272454906569E-09
(PID.TID 0000.0001) %MON advcfl_wvel_max              =   1.0395628045989E-14
(PID.TID 0000.0001) %MON advcfl_W_hf_max              =   0.0000000000000E+00
(PID.TID 0000.0001) %MON pe_b_mean                    =   6.3638409761406E-22
(PID.TID 0000.0001) %MON ke_max                       =   1.2789026616666E-18
(PID.TID 0000.0001) %MON ke_mean                      =   2.1028957543923E-19
(PID.TID 0000.0001) %MON ke_vol                       =   7.5645000000000E+15
(PID.TID 0000.0001) %MON vort_r_min                   =  -5.8889726775861E-14
(PID.TID 0000.0001) %MON vort_r_max                   =   4.3122683776179E-14
(PID.TID 0000.0001) %MON vort_a_mean                  =   8.2300000000000E-05
(PID.TID 0000.0001) %MON vort_a_sd                    =   7.1297555115677E-06
(PID.TID 0000.0001) %MON vort_p_mean                  =   8.3303658536585E-05
(PID.TID 0000.0001) %MON vort_p_sd                    =   1.7411470229553E-05
(PID.TID 0000.0001) %MON surfExpan_theta_mean         =  -4.8753323930824E-28
(PID.TID 0000.0001) %MON surfExpan_salt_mean          =  -7.3705859754852E-28
(PID.TID 0000.0001) // =======================================================
(PID.TID 0000.0001) // End MONITOR dynamic field statistics
(PID.TID 0000.0001) // =======================================================
 cg2d: Sum(rhs),rhsMax =  -3.53175382381420E-02  1.15183844079908E-10
 cg2d: Sum(rhs),rhsMax =  -3.54386196879679E-02  1.14790301268381E-10
 cg2d: Sum(rhs),rhsMax =  -3.55600582424009E-02  1.14398289687705E-10
 cg2d: Sum(rhs),rhsMax =  -3.56863719687499E-02  1.13993371512145E-10
 cg2d: Sum(rhs),rhsMax =  -3.58205422613792E-02  1.13566395580056E-10
 cg2d: Sum(rhs),rhsMax =  -3.59538208693966E-02  1.13145412370275E-10
 cg2d: Sum(rhs),rhsMax =  -3.60077954603947E-02  1.12975811249374E-10
 cg2d: Sum(rhs),rhsMax =  -3.57763938422042E-02  1.13706538918236E-10
 cg2d: Sum(rhs),rhsMax =  -3.55538399303164E-02  1.14418300340533E-10
 cg2d: Sum(rhs),rhsMax =  -3.53399165071550E-02  1.15110910105713E-10
 cg2d: Sum(rhs),rhsMax =  -3.51331467022028E-02  1.15788375114366E-10
 cg2d: Sum(rhs),rhsMax =  -3.49343853870098E-02  1.16447160656026E-10
 cg2d: Sum(rhs),rhsMax =  -3.47437187674521E-02  1.17086200112001E-10
 cg2d: Sum(rhs),rhsMax =  -3.45609692160958E-02  1.17705322528823E-10
 cg2d: Sum(rhs),rhsMax =  -3.43859686690202E-02  1.18304360956431E-10
 cg2d: Sum(rhs),rhsMax =  -3.42185581991008E-02  1.18883152486094E-10
(PID.TID 0000.0001)      cg2d_init_res =   4.06266553005204E-01
(PID.TID 0000.0001)      cg2d_iters(min,last) =      -1     550
(PID.TID 0000.0001)      cg2d_last_res =   8.75760143767680E-08
(PID.TID 0000.0001) // =======================================================
(PID.TID 0000.0001) // Begin MONITOR dynamic field statistics
(PID.TID 0000.0001) // =======================================================
(PID.TID 0000.0001) %MON time_tsnumber                =                  5504
(PID.TID 0000.0001) %MON time_secondsf                =   2.9721600000000E+07
(PID.TID 0000.0001) %MON dynstat_eta_max              =   9.3630237639027E-10
(PID.TID 0000.0001) %MON dynstat_eta_min              =  -2.5177199486800E-09
(PID.TID 0000.0001) %MON dynstat_eta_mean             =   3.9203904561949E-13
(PID.TID 0000.0001) %MON dynstat_eta_sd               =   8.0170372076556E-10
(PID.TID 0000.0001) %MON dynstat_eta_del2             =   5.0586883394951E-15
(PID.TID 0000.0001) %MON dynstat_uvel_max             =   1.0869755073265E-09
(PID.TID 0000.0001) %MON dynstat_uvel_min             =  -8.5167306699003E-10
(PID.TID 0000.0001) %MON dynstat_uvel_mean            =   9.0784108773896E-14
(PID.TID 0000.0001) %MON dynstat_uvel_sd              =   3.3803539073591E-10
(PID.TID 0000.0001) %MON dynstat_uvel_del2            =   2.2755711871495E-14
(PID.TID 0000.0001) %MON dynstat_vvel_max             =   1.6533789576923E-09
(PID.TID 0000.0001) %MON dynstat_vvel_min             =  -1.3709102370387E-09
(PID.TID 0000.0001) %MON dynstat_vvel_mean            =   9.2171586476644E-16
(PID.TID 0000.0001) %MON dynstat_vvel_sd              =   5.5136144857801E-10
(PID.TID 0000.0001) %MON dynstat_vvel_del2            =   2.5309433344995E-14
(PID.TID 0000.0001) %MON dynstat_wvel_max             =   5.0038435064903E-15
(PID.TID 0000.0001) %MON dynstat_wvel_min             =  -4.3452095911667E-15
(PID.TID 0000.0001) %MON dynstat_wvel_mean            =   6.0242288386336E-29
(PID.TID 0000.0001) %MON dynstat_wvel_sd              =   2.1243420931076E-15
(PID.TID 0000.0001) %MON dynstat_wvel_del2            =   1.2018193389443E-20
(PID.TID 0000.0001) %MON dynstat_theta_max            =   2.0000000000000E+01
(PID.TID 0000.0001) %MON dynstat_theta_min            =   2.0000000000000E+01
(PID.TID 0000.0001) %MON dynstat_theta_mean           =   2.0000000000000E+01
(PID.TID 0000.0001) %MON dynstat_theta_sd             =   0.0000000000000E+00
(PID.TID 0000.0001) %MON dynstat_theta_del2           =   0.0000000000000E+00
(PID.TID 0000.0001) %MON dynstat_salt_max             =   3.0000000000000E+01
(PID.TID 0000.0001) %MON dynstat_salt_min             =   3.0000000000000E+01
(PID.TID 0000.0001) %MON dynstat_salt_mean            =   3.0000000000000E+01
(PID.TID 0000.0001) %MON dynstat_salt_sd              =   0.0000000000000E+00
(PID.TID 0000.0001) %MON dynstat_salt_del2            =   0.0000000000000E+00
(PID.TID 0000.0001) %MON trAdv_CFL_u_max              =   1.1751090313221E-09
(PID.TID 0000.0001) %MON trAdv_CFL_v_max              =   1.7825148368296E-09
(PID.TID 0000.0001) %MON trAdv_CFL_w_max              =   5.3815884006103E-15
(PID.TID 0000.0001) %MON advcfl_uvel_max              =   1.1739335479127E-09
(PID.TID 0000.0001) %MON advcfl_vvel_max              =   1.7856492743077E-09
(PID.TID 0000.0001) %MON advcfl_wvel_max              =   1.0808301974019E-14
(PID.TID 0000.0001) %MON advcfl_W_hf_max              =   0.0000000000000E+00
(PID.TID 0000.0001) %MON pe_b_mean                    =   6.3051715840186E-22
(PID.TID 0000.0001) %MON ke_max                       =   1.3670679996197E-18
(PID.TID 0000.0001) %MON ke_mean                      =   2.0828355335285E-19
(PID.TID 0000.0001) %MON ke_vol                       =   7.5645000000000E+15
(PID.TID 0000.0001) %MON vort_r_min                   =  -5.6152926673451E-14
(PID.TID 0000.0001) %MON vort_r_max                   =   4.9378658626410E-14
(PID.TID 0000.0001) %MON vort_a_mean                  =   8.2300000000000E-05
(PID.TID 0000.0001) %MON vort_a_sd                    =   7.1297555115585E-06
(PID.TID 0000.0001) %MON vort_p_mean                  =   8.3303658536586E-05
(PID.TID 0000.0001) %MON vort_p_sd                    =   1.7411470229550E-05
(PID.TID 0000.0001) %MON surfExpan_theta_mean         =   1.1976874552818E-27
(PID.TID 0000.0001) %MON surfExpan_salt_mean          =   1.8001135349044E-27
(PID.TID 0000.0001) // =======================================================
(PID.TID 0000.0001) // End MONITOR dynamic field statistics
(PID.TID 0000.0001) // =======================================================
 cg2d: Sum(rhs),rhsMax =  -3.40572994026756E-02  1.19446056157881E-10
 cg2d: Sum(rhs),rhsMax =  -3.39033310188905E-02  1.19988508531986E-10
 cg2d: Sum(rhs),rhsMax =  -3.37565668151539E-02  1.20510186139716E-10
 cg2d: Sum(rhs),rhsMax =  -3.36168789854101E-02  1.21010941636202E-10
 cg2d: Sum(rhs),rhsMax =  -3.34841473287004E-02  1.21490631912453E-10
 cg2d: Sum(rhs),rhsMax =  -3.33582589485776E-02  1.21949118128065E-10
 cg2d: Sum(rhs),rhsMax =  -3.32383976221602E-02  1.22388882052472E-10
 cg2d: Sum(rhs),rhsMax =  -3.31247453823334E-02  1.22808805357977E-10
 cg2d: Sum(rhs),rhsMax =  -3.30176715381442E-02  1.23207068711546E-10
 cg2d: Sum(rhs),rhsMax =  -3.29170891910413E-02  1.23583549820116E-10
 cg2d: Sum(rhs),rhsMax =  -3.28229220888643E-02  1.23938130823633E-10
 cg2d: Sum(rhs),rhsMax =  -3.27350804630361E-02  1.24270698309385E-10
 cg2d: Sum(rhs),rhsMax =  -3.26535065398642E-02  1.24581143437932E-10
 cg2d: Sum(rhs),rhsMax =  -3.25774614491099E-02  1.24871948955237E-10
 cg2d: Sum(rhs),rhsMax =  -3.25072503563890E-02  1.25141653021965E-10
 cg2d: Sum(rhs),rhsMax =  -3.24431590068179E-02  1.25388868499725E-10
(PID.TID 0000.0001)      cg2d_init_res =   3.83419905246865E-01
(PID.TID 0000.0001)      cg2d_iters(min,last) =      -1     550
(PID.TID 0000.0001)      cg2d_last_res =   8.84068665309809E-08
(PID.TID 0000.0001) // =======================================================
(PID.TID 0000.0001) // Begin MONITOR dynamic field statistics
(PID.TID 0000.0001) // =======================================================
(PID.TID 0000.0001) %MON time_tsnumber                =                  5520
(PID.TID 0000.0001) %MON time_secondsf                =   2.9808000000000E+07
(PID.TID 0000.0001) %MON dynstat_eta_max              =   1.1159879731331E-09
(PID.TID 0000.0001) %MON dynstat_eta_min              =  -2.4397049324626E-09
(PID.TID 0000.0001) %MON dynstat_eta_mean             =   3.9203912885833E-13
(PID.TID 0000.0001) %MON dynstat_eta_sd               =   7.9913463057267E-10
(PID.TID 0000.0001) %MON dynstat_eta_del2             =   5.1033839292688E-15
(PID.TID 0000.0001) %MON dynstat_uvel_max             =   1.0548940417299E-09
(PID.TID 0000.0001) %MON dynstat_uvel_min             =  -8.2313082367068E-10
(PID.TID 0000.0001) %MON dynstat_uvel_mean            =   9.3031445997370E-14
(PID.TID 0000.0001) %MON dynstat_uvel_sd              =   3.3771611598438E-10
(PID.TID 0000.0001) %MON dynstat_uvel_del2            =   2.2082521538119E-14
(PID.TID 0000.0001) %MON dynstat_vvel_max             =   1.6931629219454E-09
(PID.TID 0000.0001) %MON dynstat_vvel_min             =  -1.2069161451289E-09
(PID.TID 0000.0001) %MON dynstat_vvel_mean            =  -1.6885267954624E-15
(PID.TID 0000.0001) %MON dynstat_vvel_sd              =   5.4781141227585E-10
(PID.TID 0000.0001) %MON dynstat_vvel_del2            =   2.6203065094321E-14
(PID.TID 0000.0001) %MON dynstat_wvel_max             =   5.2977712350355E-15
(PID.TID 0000.0001) %MON dynstat_wvel_min             =  -3.8493156853669E-15
(PID.TID 0000.0001) %MON dynstat_wvel_mean            =  -1.3737142603082E-28
(PID.TID 0000.0001) %MON dynstat_wvel_sd              =   2.1221195086317E-15
(PID.TID 0000.0001) %MON dynstat_wvel_del2            =   1.1985591843604E-20
(PID.TID 0000.0001) %MON dynstat_theta_max            =   2.0000000000000E+01
(PID.TID 0000.0001) %MON dynstat_theta_min            =   2.0000000000000E+01
(PID.TID 0000.0001) %MON dynstat_theta_mean           =   2.0000000000000E+01
(PID.TID 0000.0001) %MON dynstat_theta_sd             =   0.0000000000000E+00
(PID.TID 0000.0001) %MON dynstat_theta_del2           =   0.0000000000000E+00
(PID.TID 0000.0001) %MON dynstat_salt_max             =   3.0000000000000E+01
(PID.TID 0000.0001) %MON dynstat_salt_min             =   3.0000000000000E+01
(PID.TID 0000.0001) %MON dynstat_salt_mean            =   3.0000000000000E+01
(PID.TID 0000.0001) %MON dynstat_salt_sd              =   0.0000000000000E+00
(PID.TID 0000.0001) %MON dynstat_salt_del2            =   0.0000000000000E+00
(PID.TID 0000.0001) %MON trAdv_CFL_u_max              =   1.1422304767760E-09
(PID.TID 0000.0001) %MON trAdv_CFL_v_max              =   1.8263827403242E-09
(PID.TID 0000.0001) %MON trAdv_CFL_w_max              =   5.7041049108086E-15
(PID.TID 0000.0001) %MON advcfl_uvel_max              =   1.1392855650683E-09
(PID.TID 0000.0001) %MON advcfl_vvel_max              =   1.8286159557010E-09
(PID.TID 0000.0001) %MON advcfl_wvel_max              =   1.1443185867677E-14
(PID.TID 0000.0001) %MON advcfl_W_hf_max              =   0.0000000000000E+00
(PID.TID 0000.0001) %MON pe_b_mean                    =   6.2648260155716E-22
(PID.TID 0000.0001) %MON ke_max                       =   1.4336837853144E-18
(PID.TID 0000.0001) %MON ke_mean                      =   2.0623299620502E-19
(PID.TID 0000.0001) %MON ke_vol                       =   7.5645000000000E+15
(PID.TID 0000.0001) %MON vort_r_min                   =  -5.2094902760760E-14
(PID.TID 0000.0001) %MON vort_r_max                   =   5.3697346007609E-14
(PID.TID 0000.0001) %MON vort_a_mean                  =   8.2300000000000E-05
(PID.TID 0000.0001) %MON vort_a_sd                    =   7.1297555115556E-06
(PID.TID 0000.0001) %MON vort_p_mean                  =   8.3303658536586E-05
(PID.TID 0000.0001) %MON vort_p_sd                    =   1.7411470229553E-05
(PID.TID 0000.0001) %MON surfExpan_theta_mean         =  -2.7485429716460E-27
(PID.TID 0000.0001) %MON surfExpan_salt_mean          =  -4.1231317658985E-27
(PID.TID 0000.0001) // =======================================================
(PID.TID 0000.0001) // End MONITOR dynamic field statistics
(PID.TID 0000.0001) // =======================================================
 cg2d: Sum(rhs),rhsMax =  -3.23851403794503E-02  1.25613504006115E-10
 cg2d: Sum(rhs),rhsMax =  -3.23331529662649E-02  1.25815472785005E-10
 cg2d: Sum(rhs),rhsMax =  -3.22871607540945E-02  1.25994692727088E-10
 cg2d: Sum(rhs),rhsMax =  -3.22471330873040E-02  1.26151086389855E-10
 cg2d: Sum(rhs),rhsMax =  -3.22130295412199E-02  1.26284640261323E-10
 cg2d: Sum(rhs),rhsMax =  -3.21839941823385E-02  1.26398569461806E-10
 cg2d: Sum(rhs),rhsMax =  -3.21608827514059E-02  1.26489401229482E-10
 cg2d: Sum(rhs),rhsMax =  -3.21436848810037E-02  1.26557076415935E-10
 cg2d: Sum(rhs),rhsMax =  -3.21323954257470E-02  1.26601540641699E-10
 cg2d: Sum(rhs),rhsMax =  -3.21270145570303E-02  1.26622744311027E-10
 cg2d: Sum(rhs),rhsMax =  -3.21275476896662E-02  1.26620642618734E-10
 cg2d: Sum(rhs),rhsMax =  -3.21340055718594E-02  1.26595195572839E-10
 cg2d: Sum(rhs),rhsMax =  -3.21464042723091E-02  1.26546367996492E-10
 cg2d: Sum(rhs),rhsMax =  -3.21644133648669E-02  1.26475513342042E-10
 cg2d: Sum(rhs),rhsMax =  -3.21880277548145E-02  1.26382725556729E-10
 cg2d: Sum(rhs),rhsMax =  -3.22176780917979E-02  1.26266413550576E-10
(PID.TID 0000.0001)      cg2d_init_res =   3.78508908777585E-01
(PID.TID 0000.0001)      cg2d_iters(min,last) =      -1     550
(PID.TID 0000.0001)      cg2d_last_res =   9.20622151919586E-08
(PID.TID 0000.0001) // =======================================================
(PID.TID 0000.0001) // Begin MONITOR dynamic field statistics
(PID.TID 0000.0001) // =======================================================
(PID.TID 0000.0001) %MON time_tsnumber                =                  5536
(PID.TID 0000.0001) %MON time_secondsf                =   2.9894400000000E+07
(PID.TID 0000.0001) %MON dynstat_eta_max              =   1.2961128400787E-09
(PID.TID 0000.0001) %MON dynstat_eta_min              =  -2.3234234175725E-09
(PID.TID 0000.0001) %MON dynstat_eta_mean             =   3.9203909932107E-13
(PID.TID 0000.0001) %MON dynstat_eta_sd               =   7.9790618345271E-10
(PID.TID 0000.0001) %MON dynstat_eta_del2             =   5.1591401186904E-15
(PID.TID 0000.0001) %MON dynstat_uvel_max             =   9.9951413319653E-10
(PID.TID 0000.0001) %MON dynstat_uvel_min             =  -7.8108059000996E-10
(PID.TID 0000.0001) %MON dynstat_uvel_mean            =   9.0062013653516E-14
(PID.TID 0000.0001) %MON dynstat_uvel_sd              =   3.3255820086191E-10
(PID.TID 0000.0001) %MON dynstat_uvel_del2            =   2.1519498238492E-14
(PID.TID 0000.0001) %MON dynstat_vvel_max             =   1.7173135083985E-09
(PID.TID 0000.0001) %MON dynstat_vvel_min             =  -1.0316069667204E-09
(PID.TID 0000.0001) %MON dynstat_vvel_mean            =  -4.2761241231441E-15
(PID.TID 0000.0001) %MON dynstat_vvel_sd              =   5.4711932441938E-10
(PID.TID 0000.0001) %MON dynstat_vvel_del2            =   2.6778151151242E-14
(PID.TID 0000.0001) %MON dynstat_wvel_max             =   5.5232002740824E-15
(PID.TID 0000.0001) %MON dynstat_wvel_min             =  -3.3909067463644E-15
(PID.TID 0000.0001) %MON dynstat_wvel_mean            =   2.3026009690151E-29
(PID.TID 0000.0001) %MON dynstat_wvel_sd              =   2.1156776300390E-15
(PID.TID 0000.0001) %MON dynstat_wvel_del2            =   1.1927579028660E-20
(PID.TID 0000.0001) %MON dynstat_theta_max            =   2.0000000000000E+01
(PID.TID 0000.0001) %MON dynstat_theta_min            =   2.0000000000000E+01
(PID.TID 0000.0001) %MON dynstat_theta_mean           =   2.0000000000000E+01
(PID.TID 0000.0001) %MON dynstat_theta_sd             =   0.0000000000000E+00
(PID.TID 0000.0001) %MON dynstat_theta_del2           =   0.0000000000000E+00
(PID.TID 0000.0001) %MON dynstat_salt_max             =   3.0000000000000E+01
(PID.TID 0000.0001) %MON dynstat_salt_min             =   3.0000000000000E+01
(PID.TID 0000.0001) %MON dynstat_salt_mean            =   3.0000000000000E+01
(PID.TID 0000.0001) %MON dynstat_salt_sd              =   0.0000000000000E+00
(PID.TID 0000.0001) %MON dynstat_salt_del2            =   0.0000000000000E+00
(PID.TID 0000.0001) %MON trAdv_CFL_u_max              =   1.0840116341458E-09
(PID.TID 0000.0001) %MON trAdv_CFL_v_max              =   1.8535114206465E-09
(PID.TID 0000.0001) %MON trAdv_CFL_w_max              =   5.9526711921665E-15
(PID.TID 0000.0001) %MON advcfl_uvel_max              =   1.0794752638523E-09
(PID.TID 0000.0001) %MON advcfl_vvel_max              =   1.8546985890704E-09
(PID.TID 0000.0001) %MON advcfl_wvel_max              =   1.1930112592018E-14
(PID.TID 0000.0001) %MON advcfl_W_hf_max              =   0.0000000000000E+00
(PID.TID 0000.0001) %MON pe_b_mean                    =   6.2455799709228E-22
(PID.TID 0000.0001) %MON ke_max                       =   1.4751032456150E-18
(PID.TID 0000.0001) %MON ke_mean                      =   2.0413405987714E-19
(PID.TID 0000.0001) %MON ke_vol                       =   7.5645000000000E+15
(PID.TID 0000.0001) %MON vort_r_min                   =  -4.6910392474177E-14
(PID.TID 0000.0001) %MON vort_r_max                   =   5.5746137936755E-14
(PID.TID 0000.0001) %MON vort_a_mean                  =   8.2300000000000E-05
(PID.TID 0000.0001) %MON vort_a_sd                    =   7.1297555115582E-06
(PID.TID 0000.0001) %MON vort_p_mean                  =   8.3303658536586E-05
(PID.TID 0000.0001) %MON vort_p_sd                    =   1.7411470229564E-05
(PID.TID 0000.0001) %MON surfExpan_theta_mean         =   4.7344041301949E-28
(PID.TID 0000.0001) %MON surfExpan_salt_mean          =   7.1038960787970E-28
(PID.TID 0000.0001) // =======================================================
(PID.TID 0000.0001) // End MONITOR dynamic field statistics
(PID.TID 0000.0001) // =======================================================
 cg2d: Sum(rhs),rhsMax =  -3.22534018041918E-02  1.26126561119709E-10
 cg2d: Sum(rhs),rhsMax =  -3.22952420482844E-02  1.25963156933647E-10
 cg2d: Sum(rhs),rhsMax =  -3.23432478263248E-02  1.25776194539654E-10
 cg2d: Sum(rhs),rhsMax =  -3.23974741182626E-02  1.25565672366182E-10
 cg2d: Sum(rhs),rhsMax =  -3.24579819820180E-02  1.25331593725149E-10
 cg2d: Sum(rhs),rhsMax =  -3.25248387275302E-02  1.25073966813112E-10
 cg2d: Sum(rhs),rhsMax =  -3.25981181297209E-02  1.24792804711609E-10
 cg2d: Sum(rhs),rhsMax =  -3.26774303951100E-02  1.24489916456422E-10
 cg2d: Sum(rhs),rhsMax =  -3.27631808586633E-02  1.24164091017497E-10
 cg2d: Sum(rhs),rhsMax =  -3.28556260236265E-02  1.23814732909632E-10
 cg2d: Sum(rhs),rhsMax =  -3.29548669409648E-02  1.23441874533996E-10
 cg2d: Sum(rhs),rhsMax =  -3.30610122572081E-02  1.23045553176936E-10
 cg2d: Sum(rhs),rhsMax =  -3.31741784303815E-02  1.22625811007108E-10
 cg2d: Sum(rhs),rhsMax =  -3.32944900578761E-02  1.22182695070261E-10
 cg2d: Sum(rhs),rhsMax =  -3.34220802505246E-02  1.21716257280247E-10
 cg2d: Sum(rhs),rhsMax =  -3.35570909355218E-02  1.21226554409169E-10
(PID.TID 0000.0001)      cg2d_init_res =   3.91984210311344E-01
(PID.TID 0000.0001)      cg2d_iters(min,last) =      -1     550
(PID.TID 0000.0001)      cg2d_last_res =   8.54471324047006E-08
(PID.TID 0000.0001) // =======================================================
(PID.TID 0000.0001) // Begin MONITOR dynamic field statistics
(PID.TID 0000.0001) // =======================================================
(PID.TID 0000.0001) %MON time_tsnumber                =                  5552
(PID.TID 0000.0001) %MON time_secondsf                =   2.9980800000000E+07
(PID.TID 0000.0001) %MON dynstat_eta_max              =   1.4713942020038E-09
(PID.TID 0000.0001) %MON dynstat_eta_min              =  -2.1704158671708E-09
(PID.TID 0000.0001) %MON dynstat_eta_mean             =   3.9203908472795E-13
(PID.TID 0000.0001) %MON dynstat_eta_sd               =   7.9787410349783E-10
(PID.TID 0000.0001) %MON dynstat_eta_del2             =   5.2190000553914E-15
(PID.TID 0000.0001) %MON dynstat_uvel_max             =   9.2003094763314E-10
(PID.TID 0000.0001) %MON dynstat_uvel_min             =  -7.2705323274550E-10
(PID.TID 0000.0001) %MON dynstat_uvel_mean            =   8.2044660097580E-14
(PID.TID 0000.0001) %MON dynstat_uvel_sd              =   3.2326008814037E-10
(PID.TID 0000.0001) %MON dynstat_uvel_del2            =   2.1245818449468E-14
(PID.TID 0000.0001) %MON dynstat_vvel_max             =   1.7239989239669E-09
(PID.TID 0000.0001) %MON dynstat_vvel_min             =  -1.0863774623401E-09
(PID.TID 0000.0001) %MON dynstat_vvel_mean            =  -6.7382280193749E-15
(PID.TID 0000.0001) %MON dynstat_vvel_sd              =   5.4875263174676E-10
(PID.TID 0000.0001) %MON dynstat_vvel_del2            =   2.6979092241193E-14
(PID.TID 0000.0001) %MON dynstat_wvel_max             =   5.6739599579858E-15
(PID.TID 0000.0001) %MON dynstat_wvel_min             =  -3.1620130271082E-15
(PID.TID 0000.0001) %MON dynstat_wvel_mean            =   2.2157623159310E-29
(PID.TID 0000.0001) %MON dynstat_wvel_sd              =   2.1056475087750E-15
(PID.TID 0000.0001) %MON dynstat_wvel_del2            =   1.1852638994457E-20
(PID.TID 0000.0001) %MON dynstat_theta_max            =   2.0000000000000E+01
(PID.TID 0000.0001) %MON dynstat_theta_min            =   2.0000000000000E+01
(PID.TID 0000.0001) %MON dynstat_theta_mean           =   2.0000000000000E+01
(PID.TID 0000.0001) %MON dynstat_theta_sd             =   0.0000000000000E+00
(PID.TID 0000.0001) %MON dynstat_theta_del2           =   0.0000000000000E+00
(PID.TID 0000.0001) %MON dynstat_salt_max             =   3.0000000000000E+01
(PID.TID 0000.0001) %MON dynstat_salt_min             =   3.0000000000000E+01
(PID.TID 0000.0001) %MON dynstat_salt_mean            =   3.0000000000000E+01
(PID.TID 0000.0001) %MON dynstat_salt_sd              =   0.0000000000000E+00
(PID.TID 0000.0001) %MON dynstat_salt_del2            =   0.0000000000000E+00
(PID.TID 0000.0001) %MON trAdv_CFL_u_max              =   9.9973230184877E-10
(PID.TID 0000.0001) %MON trAdv_CFL_v_max              =   1.8621895964781E-09
(PID.TID 0000.0001) %MON trAdv_CFL_w_max              =   6.1205296607914E-15
(PID.TID 0000.0001) %MON advcfl_uvel_max              =   9.9363342344380E-10
(PID.TID 0000.0001) %MON advcfl_vvel_max              =   1.8619188378843E-09
(PID.TID 0000.0001) %MON advcfl_wvel_max              =   1.2255753509249E-14
(PID.TID 0000.0001) %MON advcfl_W_hf_max              =   0.0000000000000E+00
(PID.TID 0000.0001) %MON pe_b_mean                    =   6.2450777719129E-22
(PID.TID 0000.0001) %MON ke_max                       =   1.4868660058743E-18
(PID.TID 0000.0001) %MON ke_mean                      =   2.0198882691364E-19
(PID.TID 0000.0001) %MON ke_vol                       =   7.5645000000000E+15
(PID.TID 0000.0001) %MON vort_r_min                   =  -4.0996259302642E-14
(PID.TID 0000.0001) %MON vort_r_max                   =   5.5310570415024E-14
(PID.TID 0000.0001) %MON vort_a_mean                  =   8.2300000000000E-05
(PID.TID 0000.0001) %MON vort_a_sd                    =   7.1297555115628E-06
(PID.TID 0000.0001) %MON vort_p_mean                  =   8.3303658536586E-05
(PID.TID 0000.0001) %MON vort_p_sd                    =   1.7411470229580E-05
(PID.TID 0000.0001) %MON surfExpan_theta_mean         =   4.1608387009005E-28
(PID.TID 0000.0001) %MON surfExpan_salt_mean          =   6.1185785223652E-28
(PID.TID 0000.0001) // =======================================================
(PID.TID 0000.0001) // End MONITOR dynamic field statistics
(PID.TID 0000.0001) // =======================================================
 cg2d: Sum(rhs),rhsMax =  -3.36996732946174E-02  1.20713648077201E-10
 cg2d: Sum(rhs),rhsMax =  -3.38499881242322E-02  1.20177604756464E-10
 cg2d: Sum(rhs),rhsMax =  -3.40080384840205E-02  1.19619086188754E-10
 cg2d: Sum(rhs),rhsMax =  -3.41738216490417E-02  1.19038792922372E-10
 cg2d: Sum(rhs),rhsMax =  -3.43478899475233E-02  1.18435527598378E-10
 cg2d: Sum(rhs),rhsMax =  -3.45304474070652E-02  1.17809375886374E-10
 cg2d: Sum(rhs),rhsMax =  -3.47217103331473E-02  1.17160428192417E-10
 cg2d: Sum(rhs),rhsMax =  -3.49219079319508E-02  1.16488779698272E-10
 cg2d: Sum(rhs),rhsMax =  -3.51312830929375E-02  1.15794530451748E-10
 cg2d: Sum(rhs),rhsMax =  -3.53500931556863E-02  1.15077785055030E-10
 cg2d: Sum(rhs),rhsMax =  -3.55786106550515E-02  1.14338652868205E-10
 cg2d: Sum(rhs),rhsMax =  -3.58171242598234E-02  1.13577247964410E-10
 cg2d: Sum(rhs),rhsMax =  -3.60659397516134E-02  1.12793689062938E-10
 cg2d: Sum(rhs),rhsMax =  -3.63253810237028E-02  1.11988099541528E-10
 cg2d: Sum(rhs),rhsMax =  -3.65957912185159E-02  1.11160607328392E-10
 cg2d: Sum(rhs),rhsMax =  -3.68775339344532E-02  1.10311345007049E-10
(PID.TID 0000.0001)      cg2d_init_res =   4.29140443292261E-01
(PID.TID 0000.0001)      cg2d_iters(min,last) =      -1     548
(PID.TID 0000.0001)      cg2d_last_res =   9.77158335422475E-08
(PID.TID 0000.0001) // =======================================================
(PID.TID 0000.0001) // Begin MONITOR dynamic field statistics
(PID.TID 0000.0001) // =======================================================
(PID.TID 0000.0001) %MON time_tsnumber                =                  5568
(PID.TID 0000.0001) %MON time_secondsf                =   3.0067200000000E+07
(PID.TID 0000.0001) %MON dynstat_eta_max              =   1.6360863031812E-09
(PID.TID 0000.0001) %MON dynstat_eta_min              =  -1.9834103542304E-09
(PID.TID 0000.0001) %MON dynstat_eta_mean             =   3.9203907093021E-13
(PID.TID 0000.0001) %MON dynstat_eta_sd               =   7.9861566129351E-10
(PID.TID 0000.0001) %MON dynstat_eta_del2             =   5.2750244721636E-15
(PID.TID 0000.0001) %MON dynstat_uvel_max             =   8.2015225732757E-10
(PID.TID 0000.0001) %MON dynstat_uvel_min             =  -6.6333927485623E-10
(PID.TID 0000.0001) %MON dynstat_uvel_mean            =   6.9426888305314E-14
(PID.TID 0000.0001) %MON dynstat_uvel_sd              =   3.1136125450339E-10
(PID.TID 0000.0001) %MON dynstat_uvel_del2            =   2.1385797368842E-14
(PID.TID 0000.0001) %MON dynstat_vvel_max             =   1.7125100563028E-09
(PID.TID 0000.0001) %MON dynstat_vvel_min             =  -1.1623501183082E-09
(PID.TID 0000.0001) %MON dynstat_vvel_mean            =  -8.9770178289157E-15
(PID.TID 0000.0001) %MON dynstat_vvel_sd              =   5.5163072243547E-10
(PID.TID 0000.0001) %MON dynstat_vvel_del2            =   2.6803794551312E-14
(PID.TID 0000.0001) %MON dynstat_wvel_max             =   5.7452160354132E-15
(PID.TID 0000.0001) %MON dynstat_wvel_min             =  -2.9504884756226E-15
(PID.TID 0000.0001) %MON dynstat_wvel_mean            =   2.2029274304271E-28
(PID.TID 0000.0001) %MON dynstat_wvel_sd              =   2.0934550009192E-15
(PID.TID 0000.0001) %MON dynstat_wvel_del2            =   1.1782463701171E-20
(PID.TID 0000.0001) %MON dynstat_theta_max            =   2.0000000000000E+01
(PID.TID 0000.0001) %MON dynstat_theta_min            =   2.0000000000000E+01
(PID.TID 0000.0001) %MON dynstat_theta_mean           =   2.0000000000000E+01
(PID.TID 0000.0001) %MON dynstat_theta_sd             =   0.0000000000000E+00
(PID.TID 0000.0001) %MON dynstat_theta_del2           =   0.0000000000000E+00
(PID.TID 0000.0001) %MON dynstat_salt_max             =   3.0000000000000E+01
(PID.TID 0000.0001) %MON dynstat_salt_min             =   3.0000000000000E+01
(PID.TID 0000.0001) %MON dynstat_salt_mean            =   3.0000000000000E+01
(PID.TID 0000.0001) %MON dynstat_salt_sd              =   0.0000000000000E+00
(PID.TID 0000.0001) %MON dynstat_salt_del2            =   0.0000000000000E+00
(PID.TID 0000.0001) %MON trAdv_CFL_u_max              =   8.9297514027853E-10
(PID.TID 0000.0001) %MON trAdv_CFL_v_max              =   1.8509082135312E-09
(PID.TID 0000.0001) %MON trAdv_CFL_w_max              =   6.2027946118426E-15
(PID.TID 0000.0001) %MON advcfl_uvel_max              =   8.8576443791377E-10
(PID.TID 0000.0001) %MON advcfl_vvel_max              =   1.8495108608070E-09
(PID.TID 0000.0001) %MON advcfl_wvel_max              =   1.2409666636493E-14
(PID.TID 0000.0001) %MON advcfl_W_hf_max              =   0.0000000000000E+00
(PID.TID 0000.0001) %MON pe_b_mean                    =   6.2566917272290E-22
(PID.TID 0000.0001) %MON ke_max                       =   1.4675144211370E-18
(PID.TID 0000.0001) %MON ke_mean                      =   1.9980561171161E-19
(PID.TID 0000.0001) %MON ke_vol                       =   7.5645000000000E+15
(PID.TID 0000.0001) %MON vort_r_min                   =  -3.9374439201358E-14
(PID.TID 0000.0001) %MON vort_r_max                   =   5.2321196765577E-14
(PID.TID 0000.0001) %MON vort_a_mean                  =   8.2299999999999E-05
(PID.TID 0000.0001) %MON vort_a_sd                    =   7.1297555115716E-06
(PID.TID 0000.0001) %MON vort_p_mean                  =   8.3303658536585E-05
(PID.TID 0000.0001) %MON vort_p_sd                    =   1.7411470229601E-05
(PID.TID 0000.0001) %MON surfExpan_theta_mean         =   4.3610489824163E-27
(PID.TID 0000.0001) %MON surfExpan_salt_mean          =   6.5744134264000E-27
(PID.TID 0000.0001) // =======================================================
(PID.TID 0000.0001) // End MONITOR dynamic field statistics
(PID.TID 0000.0001) // =======================================================
 cg2d: Sum(rhs),rhsMax =  -3.71709945565774E-02  1.09440449681768E-10
 cg2d: Sum(rhs),rhsMax =  -3.74761952807146E-02  1.08549182257454E-10
 cg2d: Sum(rhs),rhsMax =  -3.77939461009321E-02  1.07636559938085E-10
 cg2d: Sum(rhs),rhsMax =  -3.76100682705029E-02  1.08162801202988E-10
 cg2d: Sum(rhs),rhsMax =  -3.73283564425727E-02  1.08979090387847E-10
 cg2d: Sum(rhs),rhsMax =  -3.70569026394494E-02  1.09777397265389E-10
 cg2d: Sum(rhs),rhsMax =  -3.67956071148887E-02  1.10556955936880E-10
 cg2d: Sum(rhs),rhsMax =  -3.65438987037428E-02  1.11318453997330E-10
 cg2d: Sum(rhs),rhsMax =  -3.62995773197102E-02  1.12067704351047E-10
 cg2d: Sum(rhs),rhsMax =  -3.60647110615212E-02  1.12797528980679E-10
 cg2d: Sum(rhs),rhsMax =  -3.58390626753842E-02  1.13507719796136E-10
 cg2d: Sum(rhs),rhsMax =  -3.56219948362805E-02  1.14199395490951E-10
 cg2d: Sum(rhs),rhsMax =  -3.54117701132624E-02  1.14877348848578E-10
 cg2d: Sum(rhs),rhsMax =  -3.52101869978075E-02  1.15535037088936E-10
 cg2d: Sum(rhs),rhsMax =  -3.50170512057517E-02  1.16172267847740E-10
 cg2d: Sum(rhs),rhsMax =  -3.48319416381367E-02  1.16789649183726E-10
(PID.TID 0000.0001)      cg2d_init_res =   4.05287000982173E-01
(PID.TID 0000.0001)      cg2d_iters(min,last) =      -1     550
(PID.TID 0000.0001)      cg2d_last_res =   9.24239458312697E-08
(PID.TID 0000.0001) // =======================================================
(PID.TID 0000.0001) // Begin MONITOR dynamic field statistics
(PID.TID 0000.0001) // =======================================================
(PID.TID 0000.0001) %MON time_tsnumber                =                  5584
(PID.TID 0000.0001) %MON time_secondsf                =   3.0153600000000E+07
(PID.TID 0000.0001) %MON dynstat_eta_max              =   1.7842220836846E-09
(PID.TID 0000.0001) %MON dynstat_eta_min              =  -1.7663883191435E-09
(PID.TID 0000.0001) %MON dynstat_eta_mean             =   3.9203905910559E-13
(PID.TID 0000.0001) %MON dynstat_eta_sd               =   7.9954905106209E-10
(PID.TID 0000.0001) %MON dynstat_eta_del2             =   5.3195372172297E-15
(PID.TID 0000.0001) %MON dynstat_uvel_max             =   7.5186254576432E-10
(PID.TID 0000.0001) %MON dynstat_uvel_min             =  -5.9270028385524E-10
(PID.TID 0000.0001) %MON dynstat_uvel_mean            =   5.2908508643389E-14
(PID.TID 0000.0001) %MON dynstat_uvel_sd              =   2.9912373264528E-10
(PID.TID 0000.0001) %MON dynstat_uvel_del2            =   2.1961268742608E-14
(PID.TID 0000.0001) %MON dynstat_vvel_max             =   1.6817722452330E-09
(PID.TID 0000.0001) %MON dynstat_vvel_min             =  -1.2150913907207E-09
(PID.TID 0000.0001) %MON dynstat_vvel_mean            =  -1.0904480287570E-14
(PID.TID 0000.0001) %MON dynstat_vvel_sd              =   5.5437740806838E-10
(PID.TID 0000.0001) %MON dynstat_vvel_del2            =   2.6308806185242E-14
(PID.TID 0000.0001) %MON dynstat_wvel_max             =   5.7349793483596E-15
(PID.TID 0000.0001) %MON dynstat_wvel_min             =  -2.7057422763432E-15
(PID.TID 0000.0001) %MON dynstat_wvel_mean            =   2.8020717475485E-29
(PID.TID 0000.0001) %MON dynstat_wvel_sd              =   2.0809737846496E-15
(PID.TID 0000.0001) %MON dynstat_wvel_del2            =   1.1728903702282E-20
(PID.TID 0000.0001) %MON dynstat_theta_max            =   2.0000000000000E+01
(PID.TID 0000.0001) %MON dynstat_theta_min            =   2.0000000000000E+01
(PID.TID 0000.0001) %MON dynstat_theta_mean           =   2.0000000000000E+01
(PID.TID 0000.0001) %MON dynstat_theta_sd             =   0.0000000000000E+00
(PID.TID 0000.0001) %MON dynstat_theta_del2           =   0.0000000000000E+00
(PID.TID 0000.0001) %MON dynstat_salt_max             =   3.0000000000000E+01
(PID.TID 0000.0001) %MON dynstat_salt_min             =   3.0000000000000E+01
(PID.TID 0000.0001) %MON dynstat_salt_mean            =   3.0000000000000E+01
(PID.TID 0000.0001) %MON dynstat_salt_sd              =   0.0000000000000E+00
(PID.TID 0000.0001) %MON dynstat_salt_del2            =   0.0000000000000E+00
(PID.TID 0000.0001) %MON trAdv_CFL_u_max              =   8.1138720658665E-10
(PID.TID 0000.0001) %MON trAdv_CFL_v_max              =   1.8187909584568E-09
(PID.TID 0000.0001) %MON trAdv_CFL_w_max              =   6.1975723665064E-15
(PID.TID 0000.0001) %MON advcfl_uvel_max              =   8.1201154942547E-10
(PID.TID 0000.0001) %MON advcfl_vvel_max              =   1.8163140248516E-09
(PID.TID 0000.0001) %MON advcfl_wvel_max              =   1.2387555392457E-14
(PID.TID 0000.0001) %MON advcfl_W_hf_max              =   0.0000000000000E+00
(PID.TID 0000.0001) %MON pe_b_mean                    =   6.2713254081268E-22
(PID.TID 0000.0001) %MON ke_max                       =   1.4157412818266E-18
(PID.TID 0000.0001) %MON ke_mean                      =   1.9759813745323E-19
(PID.TID 0000.0001) %MON ke_vol                       =   7.5645000000000E+15
(PID.TID 0000.0001) %MON vort_r_min                   =  -4.5440509703618E-14
(PID.TID 0000.0001) %MON vort_r_max                   =   4.6844493918128E-14
(PID.TID 0000.0001) %MON vort_a_mean                  =   8.2300000000000E-05
(PID.TID 0000.0001) %MON vort_a_sd                    =   7.1297555115589E-06
(PID.TID 0000.0001) %MON vort_p_mean                  =   8.3303658536585E-05
(PID.TID 0000.0001) %MON vort_p_sd                    =   1.7411470229617E-05
(PID.TID 0000.0001) %MON surfExpan_theta_mean         =   5.2094793744695E-28
(PID.TID 0000.0001) %MON surfExpan_salt_mean          =   7.2204617867872E-28
(PID.TID 0000.0001) // =======================================================
(PID.TID 0000.0001) // End MONITOR dynamic field statistics
(PID.TID 0000.0001) // =======================================================
 cg2d: Sum(rhs),rhsMax =  -3.46529634626968E-02  1.17392852746975E-10
 cg2d: Sum(rhs),rhsMax =  -3.44819636026815E-02  1.17975016610382E-10
 cg2d: Sum(rhs),rhsMax =  -3.43187843682107E-02  1.18535964937300E-10
 cg2d: Sum(rhs),rhsMax =  -3.41632771971758E-02  1.19075526320465E-10
 cg2d: Sum(rhs),rhsMax =  -3.40133969578603E-02  1.19600233076437E-10
 cg2d: Sum(rhs),rhsMax =  -3.38707960768525E-02  1.20103766893472E-10
 cg2d: Sum(rhs),rhsMax =  -3.37355129172523E-02  1.20585396128577E-10
 cg2d: Sum(rhs),rhsMax =  -3.36074294399096E-02  1.21044966801534E-10
 cg2d: Sum(rhs),rhsMax =  -3.34852123640287E-02  1.21486766403237E-10
 cg2d: Sum(rhs),rhsMax =  -3.33692736289072E-02  1.21908861705294E-10
 cg2d: Sum(rhs),rhsMax =  -3.32602582987924E-02  1.22308435494501E-10
 cg2d: Sum(rhs),rhsMax =  -3.31580754039646E-02  1.22685351873760E-10
 cg2d: Sum(rhs),rhsMax =  -3.30622178013722E-02  1.23041054411874E-10
 cg2d: Sum(rhs),rhsMax =  -3.29716004411193E-02  1.23379213469921E-10
 cg2d: Sum(rhs),rhsMax =  -3.28876094052066E-02  1.23694308986459E-10
 cg2d: Sum(rhs),rhsMax =  -3.28101783172471E-02  1.23986223752602E-10
(PID.TID 0000.0001)      cg2d_init_res =   3.83564481809324E-01
(PID.TID 0000.0001)      cg2d_iters(min,last) =      -1     548
(PID.TID 0000.0001)      cg2d_last_res =   9.59913532369163E-08
(PID.TID 0000.0001) // =======================================================
(PID.TID 0000.0001) // Begin MONITOR dynamic field statistics
(PID.TID 0000.0001) // =======================================================
(PID.TID 0000.0001) %MON time_tsnumber                =                  5600
(PID.TID 0000.0001) %MON time_secondsf                =   3.0240000000000E+07
(PID.TID 0000.0001) %MON dynstat_eta_max              =   1.9105858023524E-09
(PID.TID 0000.0001) %MON dynstat_eta_min              =  -1.5262288703212E-09
(PID.TID 0000.0001) %MON dynstat_eta_mean             =   3.9203904602309E-13
(PID.TID 0000.0001) %MON dynstat_eta_sd               =   8.0008297736912E-10
(PID.TID 0000.0001) %MON dynstat_eta_del2             =   5.3463532028276E-15
(PID.TID 0000.0001) %MON dynstat_uvel_max             =   7.5316335562338E-10
(PID.TID 0000.0001) %MON dynstat_uvel_min             =  -6.5025294724630E-10
(PID.TID 0000.0001) %MON dynstat_uvel_mean            =   3.3401627574417E-14
(PID.TID 0000.0001) %MON dynstat_uvel_sd              =   2.8921409426615E-10
(PID.TID 0000.0001) %MON dynstat_uvel_del2            =   2.2882713112508E-14
(PID.TID 0000.0001) %MON dynstat_vvel_max             =   1.6305467048055E-09
(PID.TID 0000.0001) %MON dynstat_vvel_min             =  -1.2487728800792E-09
(PID.TID 0000.0001) %MON dynstat_vvel_mean            =  -1.2446664789050E-14
(PID.TID 0000.0001) %MON dynstat_vvel_sd              =   5.5562344073165E-10
(PID.TID 0000.0001) %MON dynstat_vvel_del2            =   2.5610494158329E-14
(PID.TID 0000.0001) %MON dynstat_wvel_max             =   5.6436358561451E-15
(PID.TID 0000.0001) %MON dynstat_wvel_min             =  -2.4277858241828E-15
(PID.TID 0000.0001) %MON dynstat_wvel_mean            =  -1.3580938283789E-29
(PID.TID 0000.0001) %MON dynstat_wvel_sd              =   2.0700812850354E-15
(PID.TID 0000.0001) %MON dynstat_wvel_del2            =   1.1715041602201E-20
(PID.TID 0000.0001) %MON dynstat_theta_max            =   2.0000000000000E+01
(PID.TID 0000.0001) %MON dynstat_theta_min            =   2.0000000000000E+01
(PID.TID 0000.0001) %MON dynstat_theta_mean           =   2.0000000000000E+01
(PID.TID 0000.0001) %MON dynstat_theta_sd             =   0.0000000000000E+00
(PID.TID 0000.0001) %MON dynstat_theta_del2           =   0.0000000000000E+00
(PID.TID 0000.0001) %MON dynstat_salt_max             =   3.0000000000000E+01
(PID.TID 0000.0001) %MON dynstat_salt_min             =   3.0000000000000E+01
(PID.TID 0000.0001) %MON dynstat_salt_mean            =   3.0000000000000E+01
(PID.TID 0000.0001) %MON dynstat_salt_sd              =   0.0000000000000E+00
(PID.TID 0000.0001) %MON dynstat_salt_del2            =   0.0000000000000E+00
(PID.TID 0000.0001) %MON trAdv_CFL_u_max              =   8.1393371715432E-10
(PID.TID 0000.0001) %MON trAdv_CFL_v_max              =   1.7649245193664E-09
(PID.TID 0000.0001) %MON trAdv_CFL_w_max              =   6.1038438185834E-15
(PID.TID 0000.0001) %MON advcfl_uvel_max              =   8.1341642407325E-10
(PID.TID 0000.0001) %MON advcfl_vvel_max              =   1.7609904411899E-09
(PID.TID 0000.0001) %MON advcfl_wvel_max              =   1.2190253449273E-14
(PID.TID 0000.0001) %MON advcfl_W_hf_max              =   0.0000000000000E+00
(PID.TID 0000.0001) %MON pe_b_mean                    =   6.2797039880741E-22
(PID.TID 0000.0001) %MON ke_max                       =   1.3314032543921E-18
(PID.TID 0000.0001) %MON ke_mean                      =   1.9538361659227E-19
(PID.TID 0000.0001) %MON ke_vol                       =   7.5645000000000E+15
(PID.TID 0000.0001) %MON vort_r_min                   =  -4.9798490219204E-14
(PID.TID 0000.0001) %MON vort_r_max                   =   4.4845040502187E-14
(PID.TID 0000.0001) %MON vort_a_mean                  =   8.2299999999999E-05
(PID.TID 0000.0001) %MON vort_a_sd                    =   7.1297555115716E-06
(PID.TID 0000.0001) %MON vort_p_mean                  =   8.3303658536584E-05
(PID.TID 0000.0001) %MON vort_p_sd                    =   1.7411470229645E-05
(PID.TID 0000.0001) %MON surfExpan_theta_mean         =  -2.8444832118192E-28
(PID.TID 0000.0001) %MON surfExpan_salt_mean          =  -4.7672967110999E-28
(PID.TID 0000.0001) // =======================================================
(PID.TID 0000.0001) // End MONITOR dynamic field statistics
(PID.TID 0000.0001) // =======================================================
 cg2d: Sum(rhs),rhsMax =  -3.27392472098662E-02  1.24254845414406E-10
 cg2d: Sum(rhs),rhsMax =  -3.26734331208001E-02  1.24505131645797E-10
 cg2d: Sum(rhs),rhsMax =  -3.26135732886322E-02  1.24733651437168E-10
 cg2d: Sum(rhs),rhsMax =  -3.25600884192068E-02  1.24938545024253E-10
 cg2d: Sum(rhs),rhsMax =  -3.25129410931907E-02  1.25119719309031E-10
 cg2d: Sum(rhs),rhsMax =  -3.24717659607841E-02  1.25278374424692E-10
 cg2d: Sum(rhs),rhsMax =  -3.24354717076560E-02  1.25418556617857E-10
 cg2d: Sum(rhs),rhsMax =  -3.24054505175223E-02  1.25534747105949E-10
 cg2d: Sum(rhs),rhsMax =  -3.23816866924402E-02  1.25626872536888E-10
 cg2d: Sum(rhs),rhsMax =  -3.23641703780283E-02  1.25694864674072E-10
 cg2d: Sum(rhs),rhsMax =  -3.23518785857026E-02  1.25742620966452E-10
 cg2d: Sum(rhs),rhsMax =  -3.23451514443753E-02  1.25768772591076E-10
 cg2d: Sum(rhs),rhsMax =  -3.23446825860278E-02  1.25770595408973E-10
 cg2d: Sum(rhs),rhsMax =  -3.23504838301620E-02  1.25748041294465E-10
 cg2d: Sum(rhs),rhsMax =  -3.23625729998699E-02  1.25701067301336E-10
 cg2d: Sum(rhs),rhsMax =  -3.23793052539837E-02  1.25636110019807E-10
(PID.TID 0000.0001)      cg2d_init_res =   3.82238025239615E-01
(PID.TID 0000.0001)      cg2d_iters(min,last) =      -1     547
(PID.TID 0000.0001)      cg2d_last_res =   9.25904140665468E-08
(PID.TID 0000.0001) // =======================================================
(PID.TID 0000.0001) // Begin MONITOR dynamic field statistics
(PID.TID 0000.0001) // =======================================================
(PID.TID 0000.0001) %MON time_tsnumber                =                  5616
(PID.TID 0000.0001) %MON time_secondsf                =   3.0326400000000E+07
(PID.TID 0000.0001) %MON dynstat_eta_max              =   2.0107247245110E-09
(PID.TID 0000.0001) %MON dynstat_eta_min              =  -1.4164027694887E-09
(PID.TID 0000.0001) %MON dynstat_eta_mean             =   3.9203903125859E-13
(PID.TID 0000.0001) %MON dynstat_eta_sd               =   7.9975789291234E-10
(PID.TID 0000.0001) %MON dynstat_eta_del2             =   5.3518144599642E-15
(PID.TID 0000.0001) %MON dynstat_uvel_max             =   7.3689849895034E-10
(PID.TID 0000.0001) %MON dynstat_uvel_min             =  -7.4079867418452E-10
(PID.TID 0000.0001) %MON dynstat_uvel_mean            =   1.1979248599912E-14
(PID.TID 0000.0001) %MON dynstat_uvel_sd              =   2.8409389051319E-10
(PID.TID 0000.0001) %MON dynstat_uvel_del2            =   2.3984621116815E-14
(PID.TID 0000.0001) %MON dynstat_vvel_max             =   1.5582574808250E-09
(PID.TID 0000.0001) %MON dynstat_vvel_min             =  -1.2761466491550E-09
(PID.TID 0000.0001) %MON dynstat_vvel_mean            =  -1.3547200557700E-14
(PID.TID 0000.0001) %MON dynstat_vvel_sd              =   5.5428119021804E-10
(PID.TID 0000.0001) %MON dynstat_vvel_del2            =   2.4878565120716E-14
(PID.TID 0000.0001) %MON dynstat_wvel_max             =   5.4736120058685E-15
(PID.TID 0000.0001) %MON dynstat_wvel_min             =  -2.2776160636673E-15
(PID.TID 0000.0001) %MON dynstat_wvel_mean            =  -4.5389472885157E-29
(PID.TID 0000.0001) %MON dynstat_wvel_sd              =   2.0622106976315E-15
(PID.TID 0000.0001) %MON dynstat_wvel_del2            =   1.1748921443256E-20
(PID.TID 0000.0001) %MON dynstat_theta_max            =   2.0000000000000E+01
(PID.TID 0000.0001) %MON dynstat_theta_min            =   2.0000000000000E+01
(PID.TID 0000.0001) %MON dynstat_theta_mean           =   2.0000000000000E+01
(PID.TID 0000.0001) %MON dynstat_theta_sd             =   0.0000000000000E+00
(PID.TID 0000.0001) %MON dynstat_theta_del2           =   0.0000000000000E+00
(PID.TID 0000.0001) %MON dynstat_salt_max             =   3.0000000000000E+01
(PID.TID 0000.0001) %MON dynstat_salt_min             =   3.0000000000000E+01
(PID.TID 0000.0001) %MON dynstat_salt_mean            =   3.0000000000000E+01
(PID.TID 0000.0001) %MON dynstat_salt_sd              =   0.0000000000000E+00
(PID.TID 0000.0001) %MON dynstat_salt_del2            =   0.0000000000000E+00
(PID.TID 0000.0001) %MON trAdv_CFL_u_max              =   7.9744623224490E-10
(PID.TID 0000.0001) %MON trAdv_CFL_v_max              =   1.6882370450267E-09
(PID.TID 0000.0001) %MON trAdv_CFL_w_max              =   5.9251554896500E-15
(PID.TID 0000.0001) %MON advcfl_uvel_max              =   8.0006256811928E-10
(PID.TID 0000.0001) %MON advcfl_vvel_max              =   1.6829180792910E-09
(PID.TID 0000.0001) %MON advcfl_wvel_max              =   1.1823001932676E-14
(PID.TID 0000.0001) %MON advcfl_W_hf_max              =   0.0000000000000E+00
(PID.TID 0000.0001) %MON pe_b_mean                    =   6.2746019699175E-22
(PID.TID 0000.0001) %MON ke_max                       =   1.2167409842947E-18
(PID.TID 0000.0001) %MON ke_mean                      =   1.9317999860153E-19
(PID.TID 0000.0001) %MON ke_vol                       =   7.5645000000000E+15
(PID.TID 0000.0001) %MON vort_r_min                   =  -5.2053798103436E-14
(PID.TID 0000.0001) %MON vort_r_max                   =   4.9467004819016E-14
(PID.TID 0000.0001) %MON vort_a_mean                  =   8.2300000000000E-05
(PID.TID 0000.0001) %MON vort_a_sd                    =   7.1297555115559E-06
(PID.TID 0000.0001) %MON vort_p_mean                  =   8.3303658536586E-05
(PID.TID 0000.0001) %MON vort_p_sd                    =   1.7411470229663E-05
(PID.TID 0000.0001) %MON surfExpan_theta_mean         =  -9.1727127462936E-28
(PID.TID 0000.0001) %MON surfExpan_salt_mean          =  -1.4384694056438E-27
(PID.TID 0000.0001) // =======================================================
(PID.TID 0000.0001) // End MONITOR dynamic field statistics
(PID.TID 0000.0001) // =======================================================
 cg2d: Sum(rhs),rhsMax =  -3.24023566782697E-02  1.25546730696664E-10
 cg2d: Sum(rhs),rhsMax =  -3.24317839651723E-02  1.25432814371572E-10
 cg2d: Sum(rhs),rhsMax =  -3.24676276504863E-02  1.25294338498051E-10
 cg2d: Sum(rhs),rhsMax =  -3.25092758035256E-02  1.25133821602837E-10
 cg2d: Sum(rhs),rhsMax =  -3.25563987052946E-02  1.24952699653132E-10
 cg2d: Sum(rhs),rhsMax =  -3.26100911451352E-02  1.24746965056828E-10
 cg2d: Sum(rhs),rhsMax =  -3.26704180356016E-02  1.24516615807922E-10
 cg2d: Sum(rhs),rhsMax =  -3.27374512752625E-02  1.24261655156346E-10
 cg2d: Sum(rhs),rhsMax =  -3.26563738445528E-02  1.24570164769218E-10
 cg2d: Sum(rhs),rhsMax =  -3.24488327110147E-02  1.25366909082104E-10
 cg2d: Sum(rhs),rhsMax =  -3.22494564627606E-02  1.26141966304410E-10
 cg2d: Sum(rhs),rhsMax =  -3.20485832578666E-02  1.26932595035510E-10
 cg2d: Sum(rhs),rhsMax =  -3.18554323737286E-02  1.27702232439834E-10
 cg2d: Sum(rhs),rhsMax =  -3.16700554496443E-02  1.28449722029540E-10
 cg2d: Sum(rhs),rhsMax =  -3.14922729263099E-02  1.29174855617356E-10
 cg2d: Sum(rhs),rhsMax =  -3.13156936584852E-02  1.29903231336591E-10
(PID.TID 0000.0001)      cg2d_init_res =   3.74871605958522E-01
(PID.TID 0000.0001)      cg2d_iters(min,last) =      -1     547
(PID.TID 0000.0001)      cg2d_last_res =   9.84430613236874E-08
(PID.TID 0000.0001) // =======================================================
(PID.TID 0000.0001) // Begin MONITOR dynamic field statistics
(PID.TID 0000.0001) // =======================================================
(PID.TID 0000.0001) %MON time_tsnumber                =                  5632
(PID.TID 0000.0001) %MON time_secondsf                =   3.0412800000000E+07
(PID.TID 0000.0001) %MON dynstat_eta_max              =   2.0812848239942E-09
(PID.TID 0000.0001) %MON dynstat_eta_min              =  -1.4147764499310E-09
(PID.TID 0000.0001) %MON dynstat_eta_mean             =   3.9203901570293E-13
(PID.TID 0000.0001) %MON dynstat_eta_sd               =   7.9834761260726E-10
(PID.TID 0000.0001) %MON dynstat_eta_del2             =   5.3355136225975E-15
(PID.TID 0000.0001) %MON dynstat_uvel_max             =   7.3290458021836E-10
(PID.TID 0000.0001) %MON dynstat_uvel_min             =  -8.2715705820035E-10
(PID.TID 0000.0001) %MON dynstat_uvel_mean            =  -1.0184589195414E-14
(PID.TID 0000.0001) %MON dynstat_uvel_sd              =   2.8520776512184E-10
(PID.TID 0000.0001) %MON dynstat_uvel_del2            =   2.5078348918373E-14
(PID.TID 0000.0001) %MON dynstat_vvel_max             =   1.4646840554563E-09
(PID.TID 0000.0001) %MON dynstat_vvel_min             =  -1.3039033006618E-09
(PID.TID 0000.0001) %MON dynstat_vvel_mean            =  -1.4169887921535E-14
(PID.TID 0000.0001) %MON dynstat_vvel_sd              =   5.4974669383763E-10
(PID.TID 0000.0001) %MON dynstat_vvel_del2            =   2.4314986250044E-14
(PID.TID 0000.0001) %MON dynstat_wvel_max             =   5.2298135796991E-15
(PID.TID 0000.0001) %MON dynstat_wvel_min             =  -2.6524434786068E-15
(PID.TID 0000.0001) %MON dynstat_wvel_mean            =  -1.0202762393167E-29
(PID.TID 0000.0001) %MON dynstat_wvel_sd              =   2.0580063552566E-15
(PID.TID 0000.0001) %MON dynstat_wvel_del2            =   1.1843856399714E-20
(PID.TID 0000.0001) %MON dynstat_theta_max            =   2.0000000000000E+01
(PID.TID 0000.0001) %MON dynstat_theta_min            =   2.0000000000000E+01
(PID.TID 0000.0001) %MON dynstat_theta_mean           =   2.0000000000000E+01
(PID.TID 0000.0001) %MON dynstat_theta_sd             =   0.0000000000000E+00
(PID.TID 0000.0001) %MON dynstat_theta_del2           =   0.0000000000000E+00
(PID.TID 0000.0001) %MON dynstat_salt_max             =   3.0000000000000E+01
(PID.TID 0000.0001) %MON dynstat_salt_min             =   3.0000000000000E+01
(PID.TID 0000.0001) %MON dynstat_salt_mean            =   3.0000000000000E+01
(PID.TID 0000.0001) %MON dynstat_salt_sd              =   0.0000000000000E+00
(PID.TID 0000.0001) %MON dynstat_salt_del2            =   0.0000000000000E+00
(PID.TID 0000.0001) %MON trAdv_CFL_u_max              =   8.8773464252739E-10
(PID.TID 0000.0001) %MON trAdv_CFL_v_max              =   1.5889593448155E-09
(PID.TID 0000.0001) %MON trAdv_CFL_w_max              =   5.6663539682367E-15
(PID.TID 0000.0001) %MON advcfl_uvel_max              =   8.9332962285638E-10
(PID.TID 0000.0001) %MON advcfl_vvel_max              =   1.5818587798928E-09
(PID.TID 0000.0001) %MON advcfl_wvel_max              =   1.1296397332150E-14
(PID.TID 0000.0001) %MON advcfl_W_hf_max              =   0.0000000000000E+00
(PID.TID 0000.0001) %MON pe_b_mean                    =   6.2524924202955E-22
(PID.TID 0000.0001) %MON ke_max                       =   1.0759490970856E-18
(PID.TID 0000.0001) %MON ke_mean                      =   1.9100284503872E-19
(PID.TID 0000.0001) %MON ke_vol                       =   7.5645000000000E+15
(PID.TID 0000.0001) %MON vort_r_min                   =  -5.1961254854153E-14
(PID.TID 0000.0001) %MON vort_r_max                   =   5.3257347883403E-14
(PID.TID 0000.0001) %MON vort_a_mean                  =   8.2299999999999E-05
(PID.TID 0000.0001) %MON vort_a_sd                    =   7.1297555115719E-06
(PID.TID 0000.0001) %MON vort_p_mean                  =   8.3303658536585E-05
(PID.TID 0000.0001) %MON vort_p_sd                    =   1.7411470229694E-05
(PID.TID 0000.0001) %MON surfExpan_theta_mean         =  -1.6621418951349E-28
(PID.TID 0000.0001) %MON surfExpan_salt_mean          =  -3.2093809072207E-28
(PID.TID 0000.0001) // =======================================================
(PID.TID 0000.0001) // End MONITOR dynamic field statistics
(PID.TID 0000.0001) // =======================================================
 cg2d: Sum(rhs),rhsMax =  -3.11433223956900E-02  1.30622216050314E-10
 cg2d: Sum(rhs),rhsMax =  -3.09782137418673E-02  1.31318410030185E-10
 cg2d: Sum(rhs),rhsMax =  -3.08202129650754E-02  1.31991617517015E-10
 cg2d: Sum(rhs),rhsMax =  -3.06658304191384E-02  1.32656109269780E-10
 cg2d: Sum(rhs),rhsMax =  -3.05125595561758E-02  1.33322467837477E-10
 cg2d: Sum(rhs),rhsMax =  -3.03661150557023E-02  1.33965432277994E-10
 cg2d: Sum(rhs),rhsMax =  -3.02263637800094E-02  1.34584819685045E-10
 cg2d: Sum(rhs),rhsMax =  -3.00923921554931E-02  1.35183992243010E-10
 cg2d: Sum(rhs),rhsMax =  -2.99568016606616E-02  1.35795861743249E-10
 cg2d: Sum(rhs),rhsMax =  -2.98276660675768E-02  1.36383774655132E-10
 cg2d: Sum(rhs),rhsMax =  -2.97048712288728E-02  1.36947561451206E-10
 cg2d: Sum(rhs),rhsMax =  -2.95883099146288E-02  1.37487057483972E-10
 cg2d: Sum(rhs),rhsMax =  -2.94706828591595E-02  1.38035812551924E-10
 cg2d: Sum(rhs),rhsMax =  -2.93577154615225E-02  1.38566968849562E-10
 cg2d: Sum(rhs),rhsMax =  -2.92507907779178E-02  1.39073492508610E-10
 cg2d: Sum(rhs),rhsMax =  -2.91498179094332E-02  1.39555232705273E-10
(PID.TID 0000.0001)      cg2d_init_res =   3.54701712483408E-01
(PID.TID 0000.0001)      cg2d_iters(min,last) =      -1     549
(PID.TID 0000.0001)      cg2d_last_res =   9.80170512259088E-08
(PID.TID 0000.0001) // =======================================================
(PID.TID 0000.0001) // Begin MONITOR dynamic field statistics
(PID.TID 0000.0001) // =======================================================
(PID.TID 0000.0001) %MON time_tsnumber                =                  5648
(PID.TID 0000.0001) %MON time_secondsf                =   3.0499200000000E+07
(PID.TID 0000.0001) %MON dynstat_eta_max              =   2.1195906948297E-09
(PID.TID 0000.0001) %MON dynstat_eta_min              =  -1.3827726229482E-09
(PID.TID 0000.0001) %MON dynstat_eta_mean             =   3.9203899882104E-13
(PID.TID 0000.0001) %MON dynstat_eta_sd               =   7.9590244288800E-10
(PID.TID 0000.0001) %MON dynstat_eta_del2             =   5.3006140683012E-15
(PID.TID 0000.0001) %MON dynstat_uvel_max             =   8.3632507965358E-10
(PID.TID 0000.0001) %MON dynstat_uvel_min             =  -9.0218342484439E-10
(PID.TID 0000.0001) %MON dynstat_uvel_mean            =  -3.1879730226790E-14
(PID.TID 0000.0001) %MON dynstat_uvel_sd              =   2.9238270996288E-10
(PID.TID 0000.0001) %MON dynstat_uvel_del2            =   2.5995088802341E-14
(PID.TID 0000.0001) %MON dynstat_vvel_max             =   1.3511390916397E-09
(PID.TID 0000.0001) %MON dynstat_vvel_min             =  -1.3287669696251E-09
(PID.TID 0000.0001) %MON dynstat_vvel_mean            =  -1.4300241167579E-14
(PID.TID 0000.0001) %MON dynstat_vvel_sd              =   5.4201374333617E-10
(PID.TID 0000.0001) %MON dynstat_vvel_del2            =   2.4111804537540E-14
(PID.TID 0000.0001) %MON dynstat_wvel_max             =   4.9228687856728E-15
(PID.TID 0000.0001) %MON dynstat_wvel_min             =  -3.0312318050063E-15
(PID.TID 0000.0001) %MON dynstat_wvel_mean            =  -2.5820992451058E-29
(PID.TID 0000.0001) %MON dynstat_wvel_sd              =   2.0571738738723E-15
(PID.TID 0000.0001) %MON dynstat_wvel_del2            =   1.1987561584310E-20
(PID.TID 0000.0001) %MON dynstat_theta_max            =   2.0000000000000E+01
(PID.TID 0000.0001) %MON dynstat_theta_min            =   2.0000000000000E+01
(PID.TID 0000.0001) %MON dynstat_theta_mean           =   2.0000000000000E+01
(PID.TID 0000.0001) %MON dynstat_theta_sd             =   0.0000000000000E+00
(PID.TID 0000.0001) %MON dynstat_theta_del2           =   0.0000000000000E+00
(PID.TID 0000.0001) %MON dynstat_salt_max             =   3.0000000000000E+01
(PID.TID 0000.0001) %MON dynstat_salt_min             =   3.0000000000000E+01
(PID.TID 0000.0001) %MON dynstat_salt_mean            =   3.0000000000000E+01
(PID.TID 0000.0001) %MON dynstat_salt_sd              =   0.0000000000000E+00
(PID.TID 0000.0001) %MON dynstat_salt_del2            =   0.0000000000000E+00
(PID.TID 0000.0001) %MON trAdv_CFL_u_max              =   9.6988284572199E-10
(PID.TID 0000.0001) %MON trAdv_CFL_v_max              =   1.4675319087613E-09
(PID.TID 0000.0001) %MON trAdv_CFL_w_max              =   5.3389121839498E-15
(PID.TID 0000.0001) %MON advcfl_uvel_max              =   9.7435809883194E-10
(PID.TID 0000.0001) %MON advcfl_vvel_max              =   1.4592302189709E-09
(PID.TID 0000.0001) %MON advcfl_wvel_max              =   1.0633396577053E-14
(PID.TID 0000.0001) %MON advcfl_W_hf_max              =   0.0000000000000E+00
(PID.TID 0000.0001) %MON pe_b_mean                    =   6.2142509609617E-22
(PID.TID 0000.0001) %MON ke_max                       =   9.1653785064086E-19
(PID.TID 0000.0001) %MON ke_mean                      =   1.8886240716764E-19
(PID.TID 0000.0001) %MON ke_vol                       =   7.5645000000000E+15
(PID.TID 0000.0001) %MON vort_r_min                   =  -4.9430460103385E-14
(PID.TID 0000.0001) %MON vort_r_max                   =   5.5977736439835E-14
(PID.TID 0000.0001) %MON vort_a_mean                  =   8.2300000000000E-05
(PID.TID 0000.0001) %MON vort_a_sd                    =   7.1297555115599E-06
(PID.TID 0000.0001) %MON vort_p_mean                  =   8.3303658536585E-05
(PID.TID 0000.0001) %MON vort_p_sd                    =   1.7411470229712E-05
(PID.TID 0000.0001) %MON surfExpan_theta_mean         =  -5.2476235708450E-28
(PID.TID 0000.0001) %MON surfExpan_salt_mean          =  -8.3921878977871E-28
(PID.TID 0000.0001) // =======================================================
(PID.TID 0000.0001) // End MONITOR dynamic field statistics
(PID.TID 0000.0001) // =======================================================
 cg2d: Sum(rhs),rhsMax =  -2.90496806219506E-02  1.40036293834040E-10
 cg2d: Sum(rhs),rhsMax =  -2.89519278552118E-02  1.40509109454726E-10
 cg2d: Sum(rhs),rhsMax =  -2.88599679179456E-02  1.40956829942024E-10
 cg2d: Sum(rhs),rhsMax =  -2.87737246138856E-02  1.41379318531242E-10
 cg2d: Sum(rhs),rhsMax =  -2.86900090638811E-02  1.41791853689338E-10
 cg2d: Sum(rhs),rhsMax =  -2.86066824419706E-02  1.42204869984490E-10
 cg2d: Sum(rhs),rhsMax =  -2.85289419119235E-02  1.42592373716698E-10
 cg2d: Sum(rhs),rhsMax =  -2.84567247778679E-02  1.42954242497913E-10
 cg2d: Sum(rhs),rhsMax =  -2.83885332680745E-02  1.43297629569247E-10
 cg2d: Sum(rhs),rhsMax =  -2.83189919410301E-02  1.43649516972437E-10
 cg2d: Sum(rhs),rhsMax =  -2.82548692190010E-02  1.43975520507263E-10
 cg2d: Sum(rhs),rhsMax =  -2.81961149226432E-02  1.44275532401421E-10
 cg2d: Sum(rhs),rhsMax =  -2.81426838474147E-02  1.44549450387644E-10
 cg2d: Sum(rhs),rhsMax =  -2.80864385247423E-02  1.44838921769172E-10
 cg2d: Sum(rhs),rhsMax =  -2.80354629511220E-02  1.45102275194680E-10
 cg2d: Sum(rhs),rhsMax =  -2.79897362817509E-02  1.45339327539432E-10
(PID.TID 0000.0001)      cg2d_init_res =   3.46263934464309E-01
(PID.TID 0000.0001)      cg2d_iters(min,last) =      -1     550
(PID.TID 0000.0001)      cg2d_last_res =   9.10644506695194E-08
(PID.TID 0000.0001) // =======================================================
(PID.TID 0000.0001) // Begin MONITOR dynamic field statistics
(PID.TID 0000.0001) // =======================================================
(PID.TID 0000.0001) %MON time_tsnumber                =                  5664
(PID.TID 0000.0001) %MON time_secondsf                =   3.0585600000000E+07
(PID.TID 0000.0001) %MON dynstat_eta_max              =   2.1239158935996E-09
(PID.TID 0000.0001) %MON dynstat_eta_min              =  -1.3225098782440E-09
(PID.TID 0000.0001) %MON dynstat_eta_mean             =   3.9203898208529E-13
(PID.TID 0000.0001) %MON dynstat_eta_sd               =   7.9272779239380E-10
(PID.TID 0000.0001) %MON dynstat_eta_del2             =   5.2536813197629E-15
(PID.TID 0000.0001) %MON dynstat_uvel_max             =   9.2208983737311E-10
(PID.TID 0000.0001) %MON dynstat_uvel_min             =  -9.6054047689970E-10
(PID.TID 0000.0001) %MON dynstat_uvel_mean            =  -5.1926407615542E-14
(PID.TID 0000.0001) %MON dynstat_uvel_sd              =   3.0388410032840E-10
(PID.TID 0000.0001) %MON dynstat_uvel_del2            =   2.6610908159839E-14
(PID.TID 0000.0001) %MON dynstat_vvel_max             =   1.2178290171871E-09
(PID.TID 0000.0001) %MON dynstat_vvel_min             =  -1.3471426110770E-09
(PID.TID 0000.0001) %MON dynstat_vvel_mean            =  -1.3945909938905E-14
(PID.TID 0000.0001) %MON dynstat_vvel_sd              =   5.3169729132809E-10
(PID.TID 0000.0001) %MON dynstat_vvel_del2            =   2.4393285192618E-14
(PID.TID 0000.0001) %MON dynstat_wvel_max             =   4.5702553005955E-15
(PID.TID 0000.0001) %MON dynstat_wvel_min             =  -3.3978803667956E-15
(PID.TID 0000.0001) %MON dynstat_wvel_mean            =  -8.3431499921451E-29
(PID.TID 0000.0001) %MON dynstat_wvel_sd              =   2.0585657015095E-15
(PID.TID 0000.0001) %MON dynstat_wvel_del2            =   1.2161260063483E-20
(PID.TID 0000.0001) %MON dynstat_theta_max            =   2.0000000000000E+01
(PID.TID 0000.0001) %MON dynstat_theta_min            =   2.0000000000000E+01
(PID.TID 0000.0001) %MON dynstat_theta_mean           =   2.0000000000000E+01
(PID.TID 0000.0001) %MON dynstat_theta_sd             =   0.0000000000000E+00
(PID.TID 0000.0001) %MON dynstat_theta_del2           =   0.0000000000000E+00
(PID.TID 0000.0001) %MON dynstat_salt_max             =   3.0000000000000E+01
(PID.TID 0000.0001) %MON dynstat_salt_min             =   3.0000000000000E+01
(PID.TID 0000.0001) %MON dynstat_salt_mean            =   3.0000000000000E+01
(PID.TID 0000.0001) %MON dynstat_salt_sd              =   0.0000000000000E+00
(PID.TID 0000.0001) %MON dynstat_salt_del2            =   0.0000000000000E+00
(PID.TID 0000.0001) %MON trAdv_CFL_u_max              =   1.0338302323465E-09
(PID.TID 0000.0001) %MON trAdv_CFL_v_max              =   1.4540374862885E-09
(PID.TID 0000.0001) %MON trAdv_CFL_w_max              =   4.9607960195708E-15
(PID.TID 0000.0001) %MON advcfl_uvel_max              =   1.0373837150517E-09
(PID.TID 0000.0001) %MON advcfl_vvel_max              =   1.4549140199632E-09
(PID.TID 0000.0001) %MON advcfl_wvel_max              =   9.8717514492863E-15
(PID.TID 0000.0001) %MON advcfl_W_hf_max              =   0.0000000000000E+00
(PID.TID 0000.0001) %MON pe_b_mean                    =   6.1647757390407E-22
(PID.TID 0000.0001) %MON ke_max                       =   9.0892642486783E-19
(PID.TID 0000.0001) %MON ke_mean                      =   1.8676148767800E-19
(PID.TID 0000.0001) %MON ke_vol                       =   7.5645000000000E+15
(PID.TID 0000.0001) %MON vort_r_min                   =  -4.4535768188206E-14
(PID.TID 0000.0001) %MON vort_r_max                   =   5.7474732159593E-14
(PID.TID 0000.0001) %MON vort_a_mean                  =   8.2299999999999E-05
(PID.TID 0000.0001) %MON vort_a_sd                    =   7.1297555115715E-06
(PID.TID 0000.0001) %MON vort_p_mean                  =   8.3303658536585E-05
(PID.TID 0000.0001) %MON vort_p_sd                    =   1.7411470229738E-05
(PID.TID 0000.0001) %MON surfExpan_theta_mean         =  -1.6017494369722E-27
(PID.TID 0000.0001) %MON surfExpan_salt_mean          =  -2.4198940201492E-27
(PID.TID 0000.0001) // =======================================================
(PID.TID 0000.0001) // End MONITOR dynamic field statistics
(PID.TID 0000.0001) // =======================================================
 cg2d: Sum(rhs),rhsMax =  -2.79492248448257E-02  1.45549991471113E-10
 cg2d: Sum(rhs),rhsMax =  -2.79071234871219E-02  1.45769571291426E-10
 cg2d: Sum(rhs),rhsMax =  -2.78689456951366E-02  1.45969261241522E-10
 cg2d: Sum(rhs),rhsMax =  -2.78359306907531E-02  1.46142388682228E-10
 cg2d: Sum(rhs),rhsMax =  -2.78080558855578E-02  1.46288881413670E-10
 cg2d: Sum(rhs),rhsMax =  -2.77796293522155E-02  1.46438576488871E-10
 cg2d: Sum(rhs),rhsMax =  -2.77540143070885E-02  1.46573728805074E-10
 cg2d: Sum(rhs),rhsMax =  -2.77335079905749E-02  1.46682105843365E-10
 cg2d: Sum(rhs),rhsMax =  -2.77180986060434E-02  1.46763650701203E-10
 cg2d: Sum(rhs),rhsMax =  -2.77029924290776E-02  1.46843679111706E-10
 cg2d: Sum(rhs),rhsMax =  -2.76898149191637E-02  1.46913561145821E-10
 cg2d: Sum(rhs),rhsMax =  -2.76817234011578E-02  1.46956504324792E-10
 cg2d: Sum(rhs),rhsMax =  -2.76787167635581E-02  1.46972467175354E-10
 cg2d: Sum(rhs),rhsMax =  -2.76766848886126E-02  1.46983256659099E-10
 cg2d: Sum(rhs),rhsMax =  -2.76759273766224E-02  1.46987279207810E-10
 cg2d: Sum(rhs),rhsMax =  -2.76802642988514E-02  1.46964248928001E-10
(PID.TID 0000.0001)      cg2d_init_res =   3.47409658925443E-01
(PID.TID 0000.0001)      cg2d_iters(min,last) =      -1     550
(PID.TID 0000.0001)      cg2d_last_res =   9.20082344660174E-08
(PID.TID 0000.0001) // =======================================================
(PID.TID 0000.0001) // Begin MONITOR dynamic field statistics
(PID.TID 0000.0001) // =======================================================
(PID.TID 0000.0001) %MON time_tsnumber                =                  5680
(PID.TID 0000.0001) %MON time_secondsf                =   3.0672000000000E+07
(PID.TID 0000.0001) %MON dynstat_eta_max              =   2.0935376632180E-09
(PID.TID 0000.0001) %MON dynstat_eta_min              =  -1.2395901735182E-09
(PID.TID 0000.0001) %MON dynstat_eta_mean             =   3.9203896305640E-13
(PID.TID 0000.0001) %MON dynstat_eta_sd               =   7.8930392818447E-10
(PID.TID 0000.0001) %MON dynstat_eta_del2             =   5.2039437755338E-15
(PID.TID 0000.0001) %MON dynstat_uvel_max             =   9.8620527701502E-10
(PID.TID 0000.0001) %MON dynstat_uvel_min             =  -1.0025882965967E-09
(PID.TID 0000.0001) %MON dynstat_uvel_mean            =  -6.9239540236358E-14
(PID.TID 0000.0001) %MON dynstat_uvel_sd              =   3.1707443955038E-10
(PID.TID 0000.0001) %MON dynstat_uvel_del2            =   2.6858336765342E-14
(PID.TID 0000.0001) %MON dynstat_vvel_max             =   1.0679564728732E-09
(PID.TID 0000.0001) %MON dynstat_vvel_min             =  -1.3566185225786E-09
(PID.TID 0000.0001) %MON dynstat_vvel_mean            =  -1.3135967167113E-14
(PID.TID 0000.0001) %MON dynstat_vvel_sd              =   5.1996212894787E-10
(PID.TID 0000.0001) %MON dynstat_vvel_del2            =   2.5169253784930E-14
(PID.TID 0000.0001) %MON dynstat_wvel_max             =   4.2103327380083E-15
(PID.TID 0000.0001) %MON dynstat_wvel_min             =  -3.7388285092921E-15
(PID.TID 0000.0001) %MON dynstat_wvel_mean            =   7.3838170371495E-29
(PID.TID 0000.0001) %MON dynstat_wvel_sd              =   2.0604737639280E-15
(PID.TID 0000.0001) %MON dynstat_wvel_del2            =   1.2343891263093E-20
(PID.TID 0000.0001) %MON dynstat_theta_max            =   2.0000000000000E+01
(PID.TID 0000.0001) %MON dynstat_theta_min            =   2.0000000000000E+01
(PID.TID 0000.0001) %MON dynstat_theta_mean           =   2.0000000000000E+01
(PID.TID 0000.0001) %MON dynstat_theta_sd             =   0.0000000000000E+00
(PID.TID 0000.0001) %MON dynstat_theta_del2           =   0.0000000000000E+00
(PID.TID 0000.0001) %MON dynstat_salt_max             =   3.0000000000000E+01
(PID.TID 0000.0001) %MON dynstat_salt_min             =   3.0000000000000E+01
(PID.TID 0000.0001) %MON dynstat_salt_mean            =   3.0000000000000E+01
(PID.TID 0000.0001) %MON dynstat_salt_sd              =   0.0000000000000E+00
(PID.TID 0000.0001) %MON dynstat_salt_del2            =   0.0000000000000E+00
(PID.TID 0000.0001) %MON trAdv_CFL_u_max              =   1.0807142511670E-09
(PID.TID 0000.0001) %MON trAdv_CFL_v_max              =   1.4647318322657E-09
(PID.TID 0000.0001) %MON trAdv_CFL_w_max              =   4.5702550544036E-15
(PID.TID 0000.0001) %MON advcfl_uvel_max              =   1.0827953603244E-09
(PID.TID 0000.0001) %MON advcfl_vvel_max              =   1.4651480043849E-09
(PID.TID 0000.0001) %MON advcfl_wvel_max              =   9.0943187140979E-15
(PID.TID 0000.0001) %MON advcfl_W_hf_max              =   0.0000000000000E+00
(PID.TID 0000.0001) %MON pe_b_mean                    =   6.1116382869189E-22
(PID.TID 0000.0001) %MON ke_max                       =   9.2285535754606E-19
(PID.TID 0000.0001) %MON ke_mean                      =   1.8469455503475E-19
(PID.TID 0000.0001) %MON ke_vol                       =   7.5645000000000E+15
(PID.TID 0000.0001) %MON vort_r_min                   =  -3.7541257115886E-14
(PID.TID 0000.0001) %MON vort_r_max                   =   5.7675014956149E-14
(PID.TID 0000.0001) %MON vort_a_mean                  =   8.2299999999999E-05
(PID.TID 0000.0001) %MON vort_a_sd                    =   7.1297555115676E-06
(PID.TID 0000.0001) %MON vort_p_mean                  =   8.3303658536585E-05
(PID.TID 0000.0001) %MON vort_p_sd                    =   1.7411470229754E-05
(PID.TID 0000.0001) %MON surfExpan_theta_mean         =   1.4870021288323E-27
(PID.TID 0000.0001) %MON surfExpan_salt_mean          =   2.2355555286676E-27
(PID.TID 0000.0001) // =======================================================
(PID.TID 0000.0001) // End MONITOR dynamic field statistics
(PID.TID 0000.0001) // =======================================================
 cg2d: Sum(rhs),rhsMax =  -2.76897053190572E-02  1.46914139874424E-10
 cg2d: Sum(rhs),rhsMax =  -2.77006061430996E-02  1.46856325340752E-10
 cg2d: Sum(rhs),rhsMax =  -2.77123587389818E-02  1.46794044207378E-10
 cg2d: Sum(rhs),rhsMax =  -2.77292458427124E-02  1.46704646169069E-10
 cg2d: Sum(rhs),rhsMax =  -2.77512881803053E-02  1.46588120873576E-10
 cg2d: Sum(rhs),rhsMax =  -2.77750825215888E-02  1.46462541350348E-10
 cg2d: Sum(rhs),rhsMax =  -2.77995452364212E-02  1.46333658529182E-10
 cg2d: Sum(rhs),rhsMax =  -2.78292152844045E-02  1.46177644796082E-10
 cg2d: Sum(rhs),rhsMax =  -2.78641248907889E-02  1.45994505423331E-10
 cg2d: Sum(rhs),rhsMax =  -2.79008760633399E-02  1.45802200221747E-10
 cg2d: Sum(rhs),rhsMax =  -2.79383633048579E-02  1.45606564702856E-10
 cg2d: Sum(rhs),rhsMax =  -2.79811652219471E-02  1.45383834386624E-10
 cg2d: Sum(rhs),rhsMax =  -2.80293262078674E-02  1.45134030167585E-10
 cg2d: Sum(rhs),rhsMax =  -2.80792020765544E-02  1.44876234358504E-10
 cg2d: Sum(rhs),rhsMax =  -2.81301497410434E-02  1.44613842551007E-10
 cg2d: Sum(rhs),rhsMax =  -2.81865564132798E-02  1.44324442114490E-10
(PID.TID 0000.0001)      cg2d_init_res =   3.57452467845059E-01
(PID.TID 0000.0001)      cg2d_iters(min,last) =      -1     549
(PID.TID 0000.0001)      cg2d_last_res =   9.99089754968454E-08
(PID.TID 0000.0001) // =======================================================
(PID.TID 0000.0001) // Begin MONITOR dynamic field statistics
(PID.TID 0000.0001) // =======================================================
(PID.TID 0000.0001) %MON time_tsnumber                =                  5696
(PID.TID 0000.0001) %MON time_secondsf                =   3.0758400000000E+07
(PID.TID 0000.0001) %MON dynstat_eta_max              =   2.0287691452215E-09
(PID.TID 0000.0001) %MON dynstat_eta_min              =  -1.1407816627871E-09
(PID.TID 0000.0001) %MON dynstat_eta_mean             =   3.9203894115705E-13
(PID.TID 0000.0001) %MON dynstat_eta_sd               =   7.8616350708281E-10
(PID.TID 0000.0001) %MON dynstat_eta_del2             =   5.1619436564761E-15
(PID.TID 0000.0001) %MON dynstat_uvel_max             =   1.0266784433349E-09
(PID.TID 0000.0001) %MON dynstat_uvel_min             =  -1.0216960928810E-09
(PID.TID 0000.0001) %MON dynstat_uvel_mean            =  -8.2887408945769E-14
(PID.TID 0000.0001) %MON dynstat_uvel_sd              =   3.2919602213366E-10
(PID.TID 0000.0001) %MON dynstat_uvel_del2            =   2.6730423670302E-14
(PID.TID 0000.0001) %MON dynstat_vvel_max             =   9.0375611754313E-10
(PID.TID 0000.0001) %MON dynstat_vvel_min             =  -1.3556458167551E-09
(PID.TID 0000.0001) %MON dynstat_vvel_mean            =  -1.1919117491175E-14
(PID.TID 0000.0001) %MON dynstat_vvel_sd              =   5.0834801828514E-10
(PID.TID 0000.0001) %MON dynstat_vvel_del2            =   2.6331025624399E-14
(PID.TID 0000.0001) %MON dynstat_wvel_max             =   3.9617972196621E-15
(PID.TID 0000.0001) %MON dynstat_wvel_min             =  -4.0402850673416E-15
(PID.TID 0000.0001) %MON dynstat_wvel_mean            =   8.9080403573459E-29
(PID.TID 0000.0001) %MON dynstat_wvel_sd              =   2.0610442178038E-15
(PID.TID 0000.0001) %MON dynstat_wvel_del2            =   1.2514861068320E-20
(PID.TID 0000.0001) %MON dynstat_theta_max            =   2.0000000000000E+01
(PID.TID 0000.0001) %MON dynstat_theta_min            =   2.0000000000000E+01
(PID.TID 0000.0001) %MON dynstat_theta_mean           =   2.0000000000000E+01
(PID.TID 0000.0001) %MON dynstat_theta_sd             =   0.0000000000000E+00
(PID.TID 0000.0001) %MON dynstat_theta_del2           =   0.0000000000000E+00
(PID.TID 0000.0001) %MON dynstat_salt_max             =   3.0000000000000E+01
(PID.TID 0000.0001) %MON dynstat_salt_min             =   3.0000000000000E+01
(PID.TID 0000.0001) %MON dynstat_salt_mean            =   3.0000000000000E+01
(PID.TID 0000.0001) %MON dynstat_salt_sd              =   0.0000000000000E+00
(PID.TID 0000.0001) %MON dynstat_salt_del2            =   0.0000000000000E+00
(PID.TID 0000.0001) %MON trAdv_CFL_u_max              =   1.1068146961306E-09
(PID.TID 0000.0001) %MON trAdv_CFL_v_max              =   1.4644351795316E-09
(PID.TID 0000.0001) %MON trAdv_CFL_w_max              =   4.2875462713449E-15
(PID.TID 0000.0001) %MON advcfl_uvel_max              =   1.1088127188017E-09
(PID.TID 0000.0001) %MON advcfl_vvel_max              =   1.4640974820955E-09
(PID.TID 0000.0001) %MON advcfl_wvel_max              =   8.7270157454578E-15
(PID.TID 0000.0001) %MON advcfl_W_hf_max              =   0.0000000000000E+00
(PID.TID 0000.0001) %MON pe_b_mean                    =   6.0631020250558E-22
(PID.TID 0000.0001) %MON ke_max                       =   9.2256871625528E-19
(PID.TID 0000.0001) %MON ke_mean                      =   1.8264836431988E-19
(PID.TID 0000.0001) %MON ke_vol                       =   7.5645000000000E+15
(PID.TID 0000.0001) %MON vort_r_min                   =  -3.1091871377293E-14
(PID.TID 0000.0001) %MON vort_r_max                   =   5.6573865110690E-14
(PID.TID 0000.0001) %MON vort_a_mean                  =   8.2300000000000E-05
(PID.TID 0000.0001) %MON vort_a_sd                    =   7.1297555115531E-06
(PID.TID 0000.0001) %MON vort_p_mean                  =   8.3303658536586E-05
(PID.TID 0000.0001) %MON vort_p_sd                    =   1.7411470229762E-05
(PID.TID 0000.0001) %MON surfExpan_theta_mean         =   1.7469314104129E-27
(PID.TID 0000.0001) %MON surfExpan_salt_mean          =   2.6281614443340E-27
(PID.TID 0000.0001) // =======================================================
(PID.TID 0000.0001) // End MONITOR dynamic field statistics
(PID.TID 0000.0001) // =======================================================
 cg2d: Sum(rhs),rhsMax =  -2.82484795839771E-02  1.44008069560179E-10
 cg2d: Sum(rhs),rhsMax =  -2.83117567656301E-02  1.43686208856971E-10
 cg2d: Sum(rhs),rhsMax =  -2.83767320167614E-02  1.43357204624359E-10
 cg2d: Sum(rhs),rhsMax =  -2.84473509750066E-02  1.43001327792053E-10
 cg2d: Sum(rhs),rhsMax =  -2.85236853935128E-02  1.42618630357962E-10
 cg2d: Sum(rhs),rhsMax =  -2.86007558463965E-02  1.42234315345845E-10
 cg2d: Sum(rhs),rhsMax =  -2.86804701467487E-02  1.41838989668807E-10
 cg2d: Sum(rhs),rhsMax =  -2.87660574882203E-02  1.41416976989425E-10
 cg2d: Sum(rhs),rhsMax =  -2.88576054420676E-02  1.40968344703036E-10
 cg2d: Sum(rhs),rhsMax =  -2.89489856013793E-02  1.40523364457280E-10
 cg2d: Sum(rhs),rhsMax =  -2.90443113867782E-02  1.40062154713141E-10
 cg2d: Sum(rhs),rhsMax =  -2.91457897348316E-02  1.39574492677294E-10
 cg2d: Sum(rhs),rhsMax =  -2.92535258858487E-02  1.39060461031577E-10
 cg2d: Sum(rhs),rhsMax =  -2.93598688609653E-02  1.38556776213132E-10
 cg2d: Sum(rhs),rhsMax =  -2.94718608166740E-02  1.38030265050981E-10
 cg2d: Sum(rhs),rhsMax =  -2.95903418979916E-02  1.37477584888727E-10
(PID.TID 0000.0001)      cg2d_init_res =   3.77128598534063E-01
(PID.TID 0000.0001)      cg2d_iters(min,last) =      -1     549
(PID.TID 0000.0001)      cg2d_last_res =   9.28890844682686E-08
(PID.TID 0000.0001) // =======================================================
(PID.TID 0000.0001) // Begin MONITOR dynamic field statistics
(PID.TID 0000.0001) // =======================================================
(PID.TID 0000.0001) %MON time_tsnumber                =                  5712
(PID.TID 0000.0001) %MON time_secondsf                =   3.0844800000000E+07
(PID.TID 0000.0001) %MON dynstat_eta_max              =   1.9297962851784E-09
(PID.TID 0000.0001) %MON dynstat_eta_min              =  -1.0333108140817E-09
(PID.TID 0000.0001) %MON dynstat_eta_mean             =   3.9203891293077E-13
(PID.TID 0000.0001) %MON dynstat_eta_sd               =   7.8375351063723E-10
(PID.TID 0000.0001) %MON dynstat_eta_del2             =   5.1376668555682E-15
(PID.TID 0000.0001) %MON dynstat_uvel_max             =   1.0410484967587E-09
(PID.TID 0000.0001) %MON dynstat_uvel_min             =  -1.0184079516305E-09
(PID.TID 0000.0001) %MON dynstat_uvel_mean            =  -9.2141513921686E-14
(PID.TID 0000.0001) %MON dynstat_uvel_sd              =   3.3792244926325E-10
(PID.TID 0000.0001) %MON dynstat_uvel_del2            =   2.6280368176814E-14
(PID.TID 0000.0001) %MON dynstat_vvel_max             =   8.2816256437535E-10
(PID.TID 0000.0001) %MON dynstat_vvel_min             =  -1.3427637228932E-09
(PID.TID 0000.0001) %MON dynstat_vvel_mean            =  -1.0360930263423E-14
(PID.TID 0000.0001) %MON dynstat_vvel_sd              =   4.9848856630693E-10
(PID.TID 0000.0001) %MON dynstat_vvel_del2            =   2.7691270862713E-14
(PID.TID 0000.0001) %MON dynstat_wvel_max             =   3.8945944239033E-15
(PID.TID 0000.0001) %MON dynstat_wvel_min             =  -4.2927631496714E-15
(PID.TID 0000.0001) %MON dynstat_wvel_mean            =   4.8066263169000E-29
(PID.TID 0000.0001) %MON dynstat_wvel_sd              =   2.0587069387823E-15
(PID.TID 0000.0001) %MON dynstat_wvel_del2            =   1.2637515609650E-20
(PID.TID 0000.0001) %MON dynstat_theta_max            =   2.0000000000000E+01
(PID.TID 0000.0001) %MON dynstat_theta_min            =   2.0000000000000E+01
(PID.TID 0000.0001) %MON dynstat_theta_mean           =   2.0000000000000E+01
(PID.TID 0000.0001) %MON dynstat_theta_sd             =   0.0000000000000E+00
(PID.TID 0000.0001) %MON dynstat_theta_del2           =   0.0000000000000E+00
(PID.TID 0000.0001) %MON dynstat_salt_max             =   3.0000000000000E+01
(PID.TID 0000.0001) %MON dynstat_salt_min             =   3.0000000000000E+01
(PID.TID 0000.0001) %MON dynstat_salt_mean            =   3.0000000000000E+01
(PID.TID 0000.0001) %MON dynstat_salt_sd              =   0.0000000000000E+00
(PID.TID 0000.0001) %MON dynstat_salt_del2            =   0.0000000000000E+00
(PID.TID 0000.0001) %MON trAdv_CFL_u_max              =   1.1242262622645E-09
(PID.TID 0000.0001) %MON trAdv_CFL_v_max              =   1.4515528608646E-09
(PID.TID 0000.0001) %MON trAdv_CFL_w_max              =   4.2094084723887E-15
(PID.TID 0000.0001) %MON advcfl_uvel_max              =   1.1243323764994E-09
(PID.TID 0000.0001) %MON advcfl_vvel_max              =   1.4501848207247E-09
(PID.TID 0000.0001) %MON advcfl_wvel_max              =   9.2723684032903E-15
(PID.TID 0000.0001) %MON advcfl_W_hf_max              =   0.0000000000000E+00
(PID.TID 0000.0001) %MON pe_b_mean                    =   6.0259859446721E-22
(PID.TID 0000.0001) %MON ke_max                       =   9.0644807940754E-19
(PID.TID 0000.0001) %MON ke_mean                      =   1.8060406109308E-19
(PID.TID 0000.0001) %MON ke_vol                       =   7.5645000000000E+15
(PID.TID 0000.0001) %MON vort_r_min                   =  -4.1419384543549E-14
(PID.TID 0000.0001) %MON vort_r_max                   =   5.4299199197242E-14
(PID.TID 0000.0001) %MON vort_a_mean                  =   8.2300000000000E-05
(PID.TID 0000.0001) %MON vort_a_sd                    =   7.1297555115613E-06
(PID.TID 0000.0001) %MON vort_p_mean                  =   8.3303658536585E-05
(PID.TID 0000.0001) %MON vort_p_sd                    =   1.7411470229774E-05
(PID.TID 0000.0001) %MON surfExpan_theta_mean         =   9.4215549186300E-28
(PID.TID 0000.0001) %MON surfExpan_salt_mean          =   1.4151155332328E-27
(PID.TID 0000.0001) // =======================================================
(PID.TID 0000.0001) // End MONITOR dynamic field statistics
(PID.TID 0000.0001) // =======================================================
 cg2d: Sum(rhs),rhsMax =  -2.97143789210729E-02  1.36903710175339E-10
 cg2d: Sum(rhs),rhsMax =  -2.98375487329774E-02  1.36338569046276E-10
 cg2d: Sum(rhs),rhsMax =  -2.99674703790553E-02  1.35747482853071E-10
 cg2d: Sum(rhs),rhsMax =  -3.01042834201197E-02  1.35130558943298E-10
 cg2d: Sum(rhs),rhsMax =  -3.02448419465392E-02  1.34502558349775E-10
 cg2d: Sum(rhs),rhsMax =  -3.03869939891334E-02  1.33873347015160E-10
 cg2d: Sum(rhs),rhsMax =  -3.05363512029475E-02  1.33218554278272E-10
 cg2d: Sum(rhs),rhsMax =  -3.06930786423981E-02  1.32538302130452E-10
 cg2d: Sum(rhs),rhsMax =  -3.08512931229735E-02  1.31858605812384E-10
 cg2d: Sum(rhs),rhsMax =  -3.10141317018265E-02  1.31166285842726E-10
 cg2d: Sum(rhs),rhsMax =  -3.11847145902785E-02  1.30448794598315E-10
 cg2d: Sum(rhs),rhsMax =  -3.13630806137933E-02  1.29706913663225E-10
 cg2d: Sum(rhs),rhsMax =  -3.15404629363056E-02  1.28977445788078E-10
 cg2d: Sum(rhs),rhsMax =  -3.17260132457269E-02  1.28223116845065E-10
 cg2d: Sum(rhs),rhsMax =  -3.19199487117419E-02  1.27444072304538E-10
 cg2d: Sum(rhs),rhsMax =  -3.19489359977297E-02  1.27328440468661E-10
(PID.TID 0000.0001)      cg2d_init_res =   4.06772155687220E-01
(PID.TID 0000.0001)      cg2d_iters(min,last) =      -1     548
(PID.TID 0000.0001)      cg2d_last_res =   9.47116301571486E-08
(PID.TID 0000.0001) // =======================================================
(PID.TID 0000.0001) // Begin MONITOR dynamic field statistics
(PID.TID 0000.0001) // =======================================================
(PID.TID 0000.0001) %MON time_tsnumber                =                  5728
(PID.TID 0000.0001) %MON time_secondsf                =   3.0931200000000E+07
(PID.TID 0000.0001) %MON dynstat_eta_max              =   1.7991276364747E-09
(PID.TID 0000.0001) %MON dynstat_eta_min              =  -1.0038372849865E-09
(PID.TID 0000.0001) %MON dynstat_eta_mean             =   3.9203885593302E-13
(PID.TID 0000.0001) %MON dynstat_eta_sd               =   7.8231465151569E-10
(PID.TID 0000.0001) %MON dynstat_eta_del2             =   5.1384604947916E-15
(PID.TID 0000.0001) %MON dynstat_uvel_max             =   1.0274558819469E-09
(PID.TID 0000.0001) %MON dynstat_uvel_min             =  -9.9367320020653E-10
(PID.TID 0000.0001) %MON dynstat_uvel_mean            =  -9.6514964937250E-14
(PID.TID 0000.0001) %MON dynstat_uvel_sd              =   3.4164011366878E-10
(PID.TID 0000.0001) %MON dynstat_uvel_del2            =   2.5616761454780E-14
(PID.TID 0000.0001) %MON dynstat_vvel_max             =   8.5776010187221E-10
(PID.TID 0000.0001) %MON dynstat_vvel_min             =  -1.3175406472776E-09
(PID.TID 0000.0001) %MON dynstat_vvel_mean            =  -8.5402560751700E-15
(PID.TID 0000.0001) %MON dynstat_vvel_sd              =   4.9175238801864E-10
(PID.TID 0000.0001) %MON dynstat_vvel_del2            =   2.9038532869865E-14
(PID.TID 0000.0001) %MON dynstat_wvel_max             =   3.8309061704822E-15
(PID.TID 0000.0001) %MON dynstat_wvel_min             =  -4.4874066529310E-15
(PID.TID 0000.0001) %MON dynstat_wvel_mean            =   8.8692604019692E-29
(PID.TID 0000.0001) %MON dynstat_wvel_sd              =   2.0525242869296E-15
(PID.TID 0000.0001) %MON dynstat_wvel_del2            =   1.2698441788622E-20
(PID.TID 0000.0001) %MON dynstat_theta_max            =   2.0000000000000E+01
(PID.TID 0000.0001) %MON dynstat_theta_min            =   2.0000000000000E+01
(PID.TID 0000.0001) %MON dynstat_theta_mean           =   2.0000000000000E+01
(PID.TID 0000.0001) %MON dynstat_theta_sd             =   0.0000000000000E+00
(PID.TID 0000.0001) %MON dynstat_theta_del2           =   0.0000000000000E+00
(PID.TID 0000.0001) %MON dynstat_salt_max             =   3.0000000000000E+01
(PID.TID 0000.0001) %MON dynstat_salt_min             =   3.0000000000000E+01
(PID.TID 0000.0001) %MON dynstat_salt_mean            =   3.0000000000000E+01
(PID.TID 0000.0001) %MON dynstat_salt_sd              =   0.0000000000000E+00
(PID.TID 0000.0001) %MON dynstat_salt_del2            =   0.0000000000000E+00
(PID.TID 0000.0001) %MON trAdv_CFL_u_max              =   1.1115061244760E-09
(PID.TID 0000.0001) %MON trAdv_CFL_v_max              =   1.4250530388110E-09
(PID.TID 0000.0001) %MON trAdv_CFL_w_max              =   4.1429992008568E-15
(PID.TID 0000.0001) %MON advcfl_uvel_max              =   1.1096523525026E-09
(PID.TID 0000.0001) %MON advcfl_vvel_max              =   1.4229438990598E-09
(PID.TID 0000.0001) %MON advcfl_wvel_max              =   9.6927983703310E-15
(PID.TID 0000.0001) %MON advcfl_W_hf_max              =   0.0000000000000E+00
(PID.TID 0000.0001) %MON pe_b_mean                    =   6.0038805668484E-22
(PID.TID 0000.0001) %MON ke_max                       =   8.7500102526119E-19
(PID.TID 0000.0001) %MON ke_mean                      =   1.7854045732834E-19
(PID.TID 0000.0001) %MON ke_vol                       =   7.5645000000000E+15
(PID.TID 0000.0001) %MON vort_r_min                   =  -4.9914618321113E-14
(PID.TID 0000.0001) %MON vort_r_max                   =   5.1241582840656E-14
(PID.TID 0000.0001) %MON vort_a_mean                  =   8.2299999999999E-05
(PID.TID 0000.0001) %MON vort_a_sd                    =   7.1297555115688E-06
(PID.TID 0000.0001) %MON vort_p_mean                  =   8.3303658536585E-05
(PID.TID 0000.0001) %MON vort_p_sd                    =   1.7411470229780E-05
(PID.TID 0000.0001) %MON surfExpan_theta_mean         =   1.7639629087319E-27
(PID.TID 0000.0001) %MON surfExpan_salt_mean          =   2.6475768149581E-27
(PID.TID 0000.0001) // =======================================================
(PID.TID 0000.0001) // End MONITOR dynamic field statistics
(PID.TID 0000.0001) // =======================================================
 cg2d: Sum(rhs),rhsMax =  -3.17498106789899E-02  1.28127004269628E-10
 cg2d: Sum(rhs),rhsMax =  -3.15587275983866E-02  1.28902790401624E-10
 cg2d: Sum(rhs),rhsMax =  -3.13754756611172E-02  1.29655657417562E-10
 cg2d: Sum(rhs),rhsMax =  -3.11998551319394E-02  1.30385468749039E-10
 cg2d: Sum(rhs),rhsMax =  -3.10316761952776E-02  1.31092092075960E-10
 cg2d: Sum(rhs),rhsMax =  -3.08734766035091E-02  1.31775399905417E-10
 cg2d: Sum(rhs),rhsMax =  -3.07196493555293E-02  1.32435269214237E-10
 cg2d: Sum(rhs),rhsMax =  -3.05727574523656E-02  1.33071581711468E-10
 cg2d: Sum(rhs),rhsMax =  -3.04326507398691E-02  1.33684223973435E-10
 cg2d: Sum(rhs),rhsMax =  -3.02991870180221E-02  1.34273087071196E-10
 cg2d: Sum(rhs),rhsMax =  -3.01722320240432E-02  1.34838066893371E-10
 cg2d: Sum(rhs),rhsMax =  -3.00516592605147E-02  1.35379064024649E-10
 cg2d: Sum(rhs),rhsMax =  -2.99371832438327E-02  1.35896738370156E-10
 cg2d: Sum(rhs),rhsMax =  -2.98286912201422E-02  1.36391019493277E-10
 cg2d: Sum(rhs),rhsMax =  -2.97262411526773E-02  1.36861086007851E-10
 cg2d: Sum(rhs),rhsMax =  -2.96297341365591E-02  1.37306857778383E-10
(PID.TID 0000.0001)      cg2d_init_res =   3.74636296623605E-01
(PID.TID 0000.0001)      cg2d_iters(min,last) =      -1     545
(PID.TID 0000.0001)      cg2d_last_res =   9.88981797874666E-08
(PID.TID 0000.0001) // =======================================================
(PID.TID 0000.0001) // Begin MONITOR dynamic field statistics
(PID.TID 0000.0001) // =======================================================
(PID.TID 0000.0001) %MON time_tsnumber                =                  5744
(PID.TID 0000.0001) %MON time_secondsf                =   3.1017600000000E+07
(PID.TID 0000.0001) %MON dynstat_eta_max              =   1.6393545121869E-09
(PID.TID 0000.0001) %MON dynstat_eta_min              =  -1.1451236763155E-09
(PID.TID 0000.0001) %MON dynstat_eta_mean             =   3.9207331860723E-13
(PID.TID 0000.0001) %MON dynstat_eta_sd               =   7.8180997724164E-10
(PID.TID 0000.0001) %MON dynstat_eta_del2             =   5.1672692848321E-15
(PID.TID 0000.0001) %MON dynstat_uvel_max             =   9.8616297014295E-10
(PID.TID 0000.0001) %MON dynstat_uvel_min             =  -9.4734556662827E-10
(PID.TID 0000.0001) %MON dynstat_uvel_mean            =  -9.5787401952005E-14
(PID.TID 0000.0001) %MON dynstat_uvel_sd              =   3.3956195660057E-10
(PID.TID 0000.0001) %MON dynstat_uvel_del2            =   2.4891810965970E-14
(PID.TID 0000.0001) %MON dynstat_vvel_max             =   8.9583270073014E-10
(PID.TID 0000.0001) %MON dynstat_vvel_min             =  -1.2795948126635E-09
(PID.TID 0000.0001) %MON dynstat_vvel_mean            =  -6.5450287706162E-15
(PID.TID 0000.0001) %MON dynstat_vvel_sd              =   4.8889041305293E-10
(PID.TID 0000.0001) %MON dynstat_vvel_del2            =   3.0179976171410E-14
(PID.TID 0000.0001) %MON dynstat_wvel_max             =   3.7211185315023E-15
(PID.TID 0000.0001) %MON dynstat_wvel_min             =  -4.6204241307968E-15
(PID.TID 0000.0001) %MON dynstat_wvel_mean            =  -6.8486066078827E-29
(PID.TID 0000.0001) %MON dynstat_wvel_sd              =   2.0423940615946E-15
(PID.TID 0000.0001) %MON dynstat_wvel_del2            =   1.2697866292061E-20
(PID.TID 0000.0001) %MON dynstat_theta_max            =   2.0000000000000E+01
(PID.TID 0000.0001) %MON dynstat_theta_min            =   2.0000000000000E+01
(PID.TID 0000.0001) %MON dynstat_theta_mean           =   2.0000000000000E+01
(PID.TID 0000.0001) %MON dynstat_theta_sd             =   0.0000000000000E+00
(PID.TID 0000.0001) %MON dynstat_theta_del2           =   0.0000000000000E+00
(PID.TID 0000.0001) %MON dynstat_salt_max             =   3.0000000000000E+01
(PID.TID 0000.0001) %MON dynstat_salt_min             =   3.0000000000000E+01
(PID.TID 0000.0001) %MON dynstat_salt_mean            =   3.0000000000000E+01
(PID.TID 0000.0001) %MON dynstat_salt_sd              =   0.0000000000000E+00
(PID.TID 0000.0001) %MON dynstat_salt_del2            =   0.0000000000000E+00
(PID.TID 0000.0001) %MON trAdv_CFL_u_max              =   1.0687272911248E-09
(PID.TID 0000.0001) %MON trAdv_CFL_v_max              =   1.3847993476732E-09
(PID.TID 0000.0001) %MON trAdv_CFL_w_max              =   4.0280695500106E-15
(PID.TID 0000.0001) %MON advcfl_uvel_max              =   1.0650560077544E-09
(PID.TID 0000.0001) %MON advcfl_vvel_max              =   1.3819623976766E-09
(PID.TID 0000.0001) %MON advcfl_wvel_max              =   9.9801161225210E-15
(PID.TID 0000.0001) %MON advcfl_W_hf_max              =   0.0000000000000E+00
(PID.TID 0000.0001) %MON pe_b_mean                    =   5.9961368134556E-22
(PID.TID 0000.0001) %MON ke_max                       =   8.2738797806041E-19
(PID.TID 0000.0001) %MON ke_mean                      =   1.7643792896965E-19
(PID.TID 0000.0001) %MON ke_vol                       =   7.5645000000000E+15
(PID.TID 0000.0001) %MON vort_r_min                   =  -5.6174864300469E-14
(PID.TID 0000.0001) %MON vort_r_max                   =   4.9634313100219E-14
(PID.TID 0000.0001) %MON vort_a_mean                  =   8.2300000000000E-05
(PID.TID 0000.0001) %MON vort_a_sd                    =   7.1297555115645E-06
(PID.TID 0000.0001) %MON vort_p_mean                  =   8.3303658536585E-05
(PID.TID 0000.0001) %MON vort_p_sd                    =   1.7411470229776E-05
(PID.TID 0000.0001) %MON surfExpan_theta_mean         =  -1.3726845937549E-27
(PID.TID 0000.0001) %MON surfExpan_salt_mean          =  -2.0653512241456E-27
(PID.TID 0000.0001) // =======================================================
(PID.TID 0000.0001) // End MONITOR dynamic field statistics
(PID.TID 0000.0001) // =======================================================
 cg2d: Sum(rhs),rhsMax =  -2.95390774885078E-02  1.37728259595866E-10
 cg2d: Sum(rhs),rhsMax =  -2.94541846889331E-02  1.38125220961665E-10
 cg2d: Sum(rhs),rhsMax =  -2.93749751485287E-02  1.38497676287858E-10
 cg2d: Sum(rhs),rhsMax =  -2.93013740853387E-02  1.38845564833762E-10
 cg2d: Sum(rhs),rhsMax =  -2.92333121230978E-02  1.39168830783138E-10
 cg2d: Sum(rhs),rhsMax =  -2.91707253868575E-02  1.39467423106398E-10
 cg2d: Sum(rhs),rhsMax =  -2.91135552080823E-02  1.39741295727293E-10
 cg2d: Sum(rhs),rhsMax =  -2.90617480769039E-02  1.39990407450801E-10
 cg2d: Sum(rhs),rhsMax =  -2.90152554706482E-02  1.40214721985191E-10
 cg2d: Sum(rhs),rhsMax =  -2.89740337680697E-02  1.40414207947123E-10
 cg2d: Sum(rhs),rhsMax =  -2.89380441345782E-02  1.40588838865912E-10
 cg2d: Sum(rhs),rhsMax =  -2.89072524923330E-02  1.40738593184812E-10
 cg2d: Sum(rhs),rhsMax =  -2.88816293277658E-02  1.40863454318007E-10
 cg2d: Sum(rhs),rhsMax =  -2.88611497739654E-02  1.40963410425806E-10
 cg2d: Sum(rhs),rhsMax =  -2.88457933745067E-02  1.41038454825862E-10
 cg2d: Sum(rhs),rhsMax =  -2.88355442205248E-02  1.41088585596982E-10
(PID.TID 0000.0001)      cg2d_init_res =   3.60359884171166E-01
(PID.TID 0000.0001)      cg2d_iters(min,last) =      -1     541
(PID.TID 0000.0001)      cg2d_last_res =   8.86666265409537E-08
(PID.TID 0000.0001) // =======================================================
(PID.TID 0000.0001) // Begin MONITOR dynamic field statistics
(PID.TID 0000.0001) // =======================================================
(PID.TID 0000.0001) %MON time_tsnumber                =                  5760
(PID.TID 0000.0001) %MON time_secondsf                =   3.1104000000000E+07
(PID.TID 0000.0001) %MON dynstat_eta_max              =   1.4559371077615E-09
(PID.TID 0000.0001) %MON dynstat_eta_min              =  -1.2829289297778E-09
(PID.TID 0000.0001) %MON dynstat_eta_mean             =   3.9207336089820E-13
(PID.TID 0000.0001) %MON dynstat_eta_sd               =   7.8192277171411E-10
(PID.TID 0000.0001) %MON dynstat_eta_del2             =   5.2217651864065E-15
(PID.TID 0000.0001) %MON dynstat_uvel_max             =   9.1910059180287E-10
(PID.TID 0000.0001) %MON dynstat_uvel_min             =  -8.8670366903498E-10
(PID.TID 0000.0001) %MON dynstat_uvel_mean            =  -9.0015190030400E-14
(PID.TID 0000.0001) %MON dynstat_uvel_sd              =   3.3176484643193E-10
(PID.TID 0000.0001) %MON dynstat_uvel_del2            =   2.4278160527005E-14
(PID.TID 0000.0001) %MON dynstat_vvel_max             =   9.4213510892777E-10
(PID.TID 0000.0001) %MON dynstat_vvel_min             =  -1.2282400799903E-09
(PID.TID 0000.0001) %MON dynstat_vvel_mean            =  -4.4676803892414E-15
(PID.TID 0000.0001) %MON dynstat_vvel_sd              =   4.8981555340959E-10
(PID.TID 0000.0001) %MON dynstat_vvel_del2            =   3.0965888953830E-14
(PID.TID 0000.0001) %MON dynstat_wvel_max             =   3.5568977133082E-15
(PID.TID 0000.0001) %MON dynstat_wvel_min             =  -4.6899916147924E-15
(PID.TID 0000.0001) %MON dynstat_wvel_mean            =   6.3153952413168E-30
(PID.TID 0000.0001) %MON dynstat_wvel_sd              =   2.0290744148738E-15
(PID.TID 0000.0001) %MON dynstat_wvel_del2            =   1.2618102218750E-20
(PID.TID 0000.0001) %MON dynstat_theta_max            =   2.0000000000000E+01
(PID.TID 0000.0001) %MON dynstat_theta_min            =   2.0000000000000E+01
(PID.TID 0000.0001) %MON dynstat_theta_mean           =   2.0000000000000E+01
(PID.TID 0000.0001) %MON dynstat_theta_sd             =   0.0000000000000E+00
(PID.TID 0000.0001) %MON dynstat_theta_del2           =   0.0000000000000E+00
(PID.TID 0000.0001) %MON dynstat_salt_max             =   3.0000000000000E+01
(PID.TID 0000.0001) %MON dynstat_salt_min             =   3.0000000000000E+01
(PID.TID 0000.0001) %MON dynstat_salt_mean            =   3.0000000000000E+01
(PID.TID 0000.0001) %MON dynstat_salt_sd              =   0.0000000000000E+00
(PID.TID 0000.0001) %MON dynstat_salt_del2            =   0.0000000000000E+00
(PID.TID 0000.0001) %MON trAdv_CFL_u_max              =   9.9795750742468E-10
(PID.TID 0000.0001) %MON trAdv_CFL_v_max              =   1.3303950642657E-09
(PID.TID 0000.0001) %MON trAdv_CFL_w_max              =   3.8539835985563E-15
(PID.TID 0000.0001) %MON advcfl_uvel_max              =   9.9262863914710E-10
(PID.TID 0000.0001) %MON advcfl_vvel_max              =   1.3264992863895E-09
(PID.TID 0000.0001) %MON advcfl_wvel_max              =   1.0130381887952E-14
(PID.TID 0000.0001) %MON advcfl_W_hf_max              =   0.0000000000000E+00
(PID.TID 0000.0001) %MON pe_b_mean                    =   5.9978671052831E-22
(PID.TID 0000.0001) %MON ke_max                       =   7.9985131343814E-19
(PID.TID 0000.0001) %MON ke_mean                      =   1.7428224281320E-19
(PID.TID 0000.0001) %MON ke_vol                       =   7.5645000000000E+15
(PID.TID 0000.0001) %MON vort_r_min                   =  -5.9915441893502E-14
(PID.TID 0000.0001) %MON vort_r_max                   =   4.8906172429812E-14
(PID.TID 0000.0001) %MON vort_a_mean                  =   8.2300000000001E-05
(PID.TID 0000.0001) %MON vort_a_sd                    =   7.1297555115572E-06
(PID.TID 0000.0001) %MON vort_p_mean                  =   8.3303658536586E-05
(PID.TID 0000.0001) %MON vort_p_sd                    =   1.7411470229766E-05
(PID.TID 0000.0001) %MON surfExpan_theta_mean         =   1.1615476068151E-28
(PID.TID 0000.0001) %MON surfExpan_salt_mean          =   1.7325572125889E-28
(PID.TID 0000.0001) // =======================================================
(PID.TID 0000.0001) // End MONITOR dynamic field statistics
(PID.TID 0000.0001) // =======================================================
(PID.TID 0000.0001) %CHECKPOINT      5760 0000005760
 cg2d: Sum(rhs),rhsMax =  -2.88301170599061E-02  1.41115145752275E-10
 cg2d: Sum(rhs),rhsMax =  -2.88295948074507E-02  1.41117702845396E-10
 cg2d: Sum(rhs),rhsMax =  -2.88341496164701E-02  1.41095411769245E-10
 cg2d: Sum(rhs),rhsMax =  -2.88437827739091E-02  1.41048290004239E-10
 cg2d: Sum(rhs),rhsMax =  -2.88584997744193E-02  1.40976360271085E-10
 cg2d: Sum(rhs),rhsMax =  -2.88783105880955E-02  1.40879649843592E-10
 cg2d: Sum(rhs),rhsMax =  -2.89032295576924E-02  1.40758190890548E-10
 cg2d: Sum(rhs),rhsMax =  -2.89332754197222E-02  1.40612020669676E-10
 cg2d: Sum(rhs),rhsMax =  -2.89684714323342E-02  1.40441181111439E-10
 cg2d: Sum(rhs),rhsMax =  -2.90088452964193E-02  1.40245718836888E-10
 cg2d: Sum(rhs),rhsMax =  -2.90544292640342E-02  1.40025685677625E-10
 cg2d: Sum(rhs),rhsMax =  -2.91052602283323E-02  1.39781138028122E-10
 cg2d: Sum(rhs),rhsMax =  -2.91613797414970E-02  1.39512137199495E-10
 cg2d: Sum(rhs),rhsMax =  -2.92228341942154E-02  1.39218749235989E-10
 cg2d: Sum(rhs),rhsMax =  -2.92896748212292E-02  1.38901044967380E-10
 cg2d: Sum(rhs),rhsMax =  -2.93615437360246E-02  1.38561054198650E-10
(PID.TID 0000.0001)      cg2d_init_res =   3.61558856751086E-01
(PID.TID 0000.0001)      cg2d_iters(min,last) =      -1     532
(PID.TID 0000.0001)      cg2d_last_res =   9.89953603379624E-08
(PID.TID 0000.0001) // =======================================================
(PID.TID 0000.0001) // Begin MONITOR dynamic field statistics
(PID.TID 0000.0001) // =======================================================
(PID.TID 0000.0001) %MON time_tsnumber                =                  5776
(PID.TID 0000.0001) %MON time_secondsf                =   3.1190400000000E+07
(PID.TID 0000.0001) %MON dynstat_eta_max              =   1.4311553694955E-09
(PID.TID 0000.0001) %MON dynstat_eta_min              =  -1.4134281791750E-09
(PID.TID 0000.0001) %MON dynstat_eta_mean             =   3.9207338949529E-13
(PID.TID 0000.0001) %MON dynstat_eta_sd               =   7.8212459933549E-10
(PID.TID 0000.0001) %MON dynstat_eta_del2             =   5.2946870755181E-15
(PID.TID 0000.0001) %MON dynstat_uvel_max             =   8.2707083685278E-10
(PID.TID 0000.0001) %MON dynstat_uvel_min             =  -8.8625397953851E-10
(PID.TID 0000.0001) %MON dynstat_uvel_mean            =  -7.9526470295025E-14
(PID.TID 0000.0001) %MON dynstat_uvel_sd              =   3.1919446831446E-10
(PID.TID 0000.0001) %MON dynstat_uvel_del2            =   2.3931750477048E-14
(PID.TID 0000.0001) %MON dynstat_vvel_max             =   1.0210105865539E-09
(PID.TID 0000.0001) %MON dynstat_vvel_min             =  -1.1986034281995E-09
(PID.TID 0000.0001) %MON dynstat_vvel_mean            =  -2.4004231101434E-15
(PID.TID 0000.0001) %MON dynstat_vvel_sd              =   4.9361395146741E-10
(PID.TID 0000.0001) %MON dynstat_vvel_del2            =   3.1301113132332E-14
(PID.TID 0000.0001) %MON dynstat_wvel_max             =   3.3397552326453E-15
(PID.TID 0000.0001) %MON dynstat_wvel_min             =  -4.6995945962580E-15
(PID.TID 0000.0001) %MON dynstat_wvel_mean            =   9.4172866205672E-29
(PID.TID 0000.0001) %MON dynstat_wvel_sd              =   2.0140274727913E-15
(PID.TID 0000.0001) %MON dynstat_wvel_del2            =   1.2483130363180E-20
(PID.TID 0000.0001) %MON dynstat_theta_max            =   2.0000000000000E+01
(PID.TID 0000.0001) %MON dynstat_theta_min            =   2.0000000000000E+01
(PID.TID 0000.0001) %MON dynstat_theta_mean           =   2.0000000000000E+01
(PID.TID 0000.0001) %MON dynstat_theta_sd             =   0.0000000000000E+00
(PID.TID 0000.0001) %MON dynstat_theta_del2           =   0.0000000000000E+00
(PID.TID 0000.0001) %MON dynstat_salt_max             =   3.0000000000000E+01
(PID.TID 0000.0001) %MON dynstat_salt_min             =   3.0000000000000E+01
(PID.TID 0000.0001) %MON dynstat_salt_mean            =   3.0000000000000E+01
(PID.TID 0000.0001) %MON dynstat_salt_sd              =   0.0000000000000E+00
(PID.TID 0000.0001) %MON dynstat_salt_del2            =   0.0000000000000E+00
(PID.TID 0000.0001) %MON trAdv_CFL_u_max              =   9.5705480150072E-10
(PID.TID 0000.0001) %MON trAdv_CFL_v_max              =   1.2940886651746E-09
(PID.TID 0000.0001) %MON trAdv_CFL_w_max              =   3.6227828886293E-15
(PID.TID 0000.0001) %MON advcfl_uvel_max              =   9.5715429790159E-10
(PID.TID 0000.0001) %MON advcfl_vvel_max              =   1.2944917024554E-09
(PID.TID 0000.0001) %MON advcfl_wvel_max              =   1.0151124327917E-14
(PID.TID 0000.0001) %MON advcfl_W_hf_max              =   0.0000000000000E+00
(PID.TID 0000.0001) %MON pe_b_mean                    =   6.0009638079770E-22
(PID.TID 0000.0001) %MON ke_max                       =   7.8596098713631E-19
(PID.TID 0000.0001) %MON ke_mean                      =   1.7206760724376E-19
(PID.TID 0000.0001) %MON ke_vol                       =   7.5645000000000E+15
(PID.TID 0000.0001) %MON vort_r_min                   =  -6.0982895014223E-14
(PID.TID 0000.0001) %MON vort_r_max                   =   4.7391231895071E-14
(PID.TID 0000.0001) %MON vort_a_mean                  =   8.2300000000000E-05
(PID.TID 0000.0001) %MON vort_a_sd                    =   7.1297555115628E-06
(PID.TID 0000.0001) %MON vort_p_mean                  =   8.3303658536585E-05
(PID.TID 0000.0001) %MON vort_p_sd                    =   1.7411470229756E-05
(PID.TID 0000.0001) %MON surfExpan_theta_mean         =   1.8979707127021E-27
(PID.TID 0000.0001) %MON surfExpan_salt_mean          =   2.8807075312330E-27
(PID.TID 0000.0001) // =======================================================
(PID.TID 0000.0001) // End MONITOR dynamic field statistics
(PID.TID 0000.0001) // =======================================================
 cg2d: Sum(rhs),rhsMax =  -2.94387167293629E-02  1.38197819725156E-10
 cg2d: Sum(rhs),rhsMax =  -2.95214438154514E-02  1.37810552389631E-10
 cg2d: Sum(rhs),rhsMax =  -2.96097961277815E-02  1.37399341678759E-10
 cg2d: Sum(rhs),rhsMax =  -2.97038502649694E-02  1.36964281573550E-10
 cg2d: Sum(rhs),rhsMax =  -2.98036885152702E-02  1.36505470637878E-10
 cg2d: Sum(rhs),rhsMax =  -2.99093989218182E-02  1.36023012456505E-10
 cg2d: Sum(rhs),rhsMax =  -3.00210756542607E-02  1.35517014887051E-10
 cg2d: Sum(rhs),rhsMax =  -3.01388191602885E-02  1.34987590338823E-10
 cg2d: Sum(rhs),rhsMax =  -3.02627362751686E-02  1.34434855919560E-10
 cg2d: Sum(rhs),rhsMax =  -3.03929405954241E-02  1.33858933187447E-10
 cg2d: Sum(rhs),rhsMax =  -3.05295527836788E-02  1.33259948074946E-10
 cg2d: Sum(rhs),rhsMax =  -3.06721184547886E-02  1.32640549117930E-10
 cg2d: Sum(rhs),rhsMax =  -3.08211288774772E-02  1.31999274437173E-10
 cg2d: Sum(rhs),rhsMax =  -3.09769274256737E-02  1.31335384192024E-10
 cg2d: Sum(rhs),rhsMax =  -3.11396643178652E-02  1.30649021635897E-10
 cg2d: Sum(rhs),rhsMax =  -3.13094983994028E-02  1.29940334317152E-10
(PID.TID 0000.0001)      cg2d_init_res =   3.79634157381024E-01
(PID.TID 0000.0001)      cg2d_iters(min,last) =      -1     545
(PID.TID 0000.0001)      cg2d_last_res =   9.36246225619226E-08
(PID.TID 0000.0001) // =======================================================
(PID.TID 0000.0001) // Begin MONITOR dynamic field statistics
(PID.TID 0000.0001) // =======================================================
(PID.TID 0000.0001) %MON time_tsnumber                =                  5792
(PID.TID 0000.0001) %MON time_secondsf                =   3.1276800000000E+07
(PID.TID 0000.0001) %MON dynstat_eta_max              =   1.5321012848291E-09
(PID.TID 0000.0001) %MON dynstat_eta_min              =  -1.5323080114540E-09
(PID.TID 0000.0001) %MON dynstat_eta_mean             =   3.9207341200567E-13
(PID.TID 0000.0001) %MON dynstat_eta_sd               =   7.8179494854132E-10
(PID.TID 0000.0001) %MON dynstat_eta_del2             =   5.3752589833320E-15
(PID.TID 0000.0001) %MON dynstat_uvel_max             =   7.1271651051227E-10
(PID.TID 0000.0001) %MON dynstat_uvel_min             =  -8.7955832808204E-10
(PID.TID 0000.0001) %MON dynstat_uvel_mean            =  -6.4901454934026E-14
(PID.TID 0000.0001) %MON dynstat_uvel_sd              =   3.0363861603108E-10
(PID.TID 0000.0001) %MON dynstat_uvel_del2            =   2.3947333506153E-14
(PID.TID 0000.0001) %MON dynstat_vvel_max             =   1.0962844167010E-09
(PID.TID 0000.0001) %MON dynstat_vvel_min             =  -1.1910413632199E-09
(PID.TID 0000.0001) %MON dynstat_vvel_mean            =  -4.3064191978674E-16
(PID.TID 0000.0001) %MON dynstat_vvel_sd              =   4.9878494719088E-10
(PID.TID 0000.0001) %MON dynstat_vvel_del2            =   3.1149602910276E-14
(PID.TID 0000.0001) %MON dynstat_wvel_max             =   3.0768718208007E-15
(PID.TID 0000.0001) %MON dynstat_wvel_min             =  -4.6561569454207E-15
(PID.TID 0000.0001) %MON dynstat_wvel_mean            =  -3.7270551510665E-29
(PID.TID 0000.0001) %MON dynstat_wvel_sd              =   1.9991060254843E-15
(PID.TID 0000.0001) %MON dynstat_wvel_del2            =   1.2301806891008E-20
(PID.TID 0000.0001) %MON dynstat_theta_max            =   2.0000000000000E+01
(PID.TID 0000.0001) %MON dynstat_theta_min            =   2.0000000000000E+01
(PID.TID 0000.0001) %MON dynstat_theta_mean           =   2.0000000000000E+01
(PID.TID 0000.0001) %MON dynstat_theta_sd             =   0.0000000000000E+00
(PID.TID 0000.0001) %MON dynstat_theta_del2           =   0.0000000000000E+00
(PID.TID 0000.0001) %MON dynstat_salt_max             =   3.0000000000000E+01
(PID.TID 0000.0001) %MON dynstat_salt_min             =   3.0000000000000E+01
(PID.TID 0000.0001) %MON dynstat_salt_mean            =   3.0000000000000E+01
(PID.TID 0000.0001) %MON dynstat_salt_sd              =   0.0000000000000E+00
(PID.TID 0000.0001) %MON dynstat_salt_del2            =   0.0000000000000E+00
(PID.TID 0000.0001) %MON trAdv_CFL_u_max              =   9.5096159154526E-10
(PID.TID 0000.0001) %MON trAdv_CFL_v_max              =   1.2874695604407E-09
(PID.TID 0000.0001) %MON trAdv_CFL_w_max              =   3.3424080533806E-15
(PID.TID 0000.0001) %MON advcfl_uvel_max              =   9.4992299432860E-10
(PID.TID 0000.0001) %MON advcfl_vvel_max              =   1.2863246722775E-09
(PID.TID 0000.0001) %MON advcfl_wvel_max              =   1.0057299002109E-14
(PID.TID 0000.0001) %MON advcfl_W_hf_max              =   0.0000000000000E+00
(PID.TID 0000.0001) %MON pe_b_mean                    =   5.9959062887585E-22
(PID.TID 0000.0001) %MON ke_max                       =   7.4917052162023E-19
(PID.TID 0000.0001) %MON ke_mean                      =   1.6979836390438E-19
(PID.TID 0000.0001) %MON ke_vol                       =   7.5645000000000E+15
(PID.TID 0000.0001) %MON vort_r_min                   =  -5.9361436279770E-14
(PID.TID 0000.0001) %MON vort_r_max                   =   4.5899235181360E-14
(PID.TID 0000.0001) %MON vort_a_mean                  =   8.2299999999999E-05
(PID.TID 0000.0001) %MON vort_a_sd                    =   7.1297555115696E-06
(PID.TID 0000.0001) %MON vort_p_mean                  =   8.3303658536584E-05
(PID.TID 0000.0001) %MON vort_p_sd                    =   1.7411470229742E-05
(PID.TID 0000.0001) %MON surfExpan_theta_mean         =  -7.4132543014194E-28
(PID.TID 0000.0001) %MON surfExpan_salt_mean          =  -1.0988759027483E-27
(PID.TID 0000.0001) // =======================================================
(PID.TID 0000.0001) // End MONITOR dynamic field statistics
(PID.TID 0000.0001) // =======================================================
 cg2d: Sum(rhs),rhsMax =  -3.14865974826538E-02  1.29209474089266E-10
 cg2d: Sum(rhs),rhsMax =  -3.16711387942408E-02  1.28456597044544E-10
 cg2d: Sum(rhs),rhsMax =  -3.15467759201375E-02  1.28962995688284E-10
 cg2d: Sum(rhs),rhsMax =  -3.12954999763295E-02  1.29998457904117E-10
 cg2d: Sum(rhs),rhsMax =  -3.10532458624785E-02  1.31012608580429E-10
 cg2d: Sum(rhs),rhsMax =  -3.08196303005276E-02  1.32005696259326E-10
 cg2d: Sum(rhs),rhsMax =  -3.05933004925657E-02  1.32982277176498E-10
 cg2d: Sum(rhs),rhsMax =  -3.03752519759109E-02  1.33936889833022E-10
 cg2d: Sum(rhs),rhsMax =  -3.01652445795627E-02  1.34869345313887E-10
 cg2d: Sum(rhs),rhsMax =  -2.99630505933662E-02  1.35779458956435E-10
 cg2d: Sum(rhs),rhsMax =  -2.97684540440190E-02  1.36667050378322E-10
 cg2d: Sum(rhs),rhsMax =  -2.95809953403353E-02  1.37533128026898E-10
 cg2d: Sum(rhs),rhsMax =  -2.93999218775574E-02  1.38380191858448E-10
 cg2d: Sum(rhs),rhsMax =  -2.92259021942790E-02  1.39204148933978E-10
 cg2d: Sum(rhs),rhsMax =  -2.90587595816615E-02  1.40004835453720E-10
 cg2d: Sum(rhs),rhsMax =  -2.88983265217235E-02  1.40782092099178E-10
(PID.TID 0000.0001)      cg2d_init_res =   3.45701968632783E-01
(PID.TID 0000.0001)      cg2d_iters(min,last) =      -1     547
(PID.TID 0000.0001)      cg2d_last_res =   9.97255902370289E-08
(PID.TID 0000.0001) // =======================================================
(PID.TID 0000.0001) // Begin MONITOR dynamic field statistics
(PID.TID 0000.0001) // =======================================================
(PID.TID 0000.0001) %MON time_tsnumber                =                  5808
(PID.TID 0000.0001) %MON time_secondsf                =   3.1363200000000E+07
(PID.TID 0000.0001) %MON dynstat_eta_max              =   1.6000414427749E-09
(PID.TID 0000.0001) %MON dynstat_eta_min              =  -1.6352208666461E-09
(PID.TID 0000.0001) %MON dynstat_eta_mean             =   3.9207342898779E-13
(PID.TID 0000.0001) %MON dynstat_eta_sd               =   7.8036200721978E-10
(PID.TID 0000.0001) %MON dynstat_eta_del2             =   5.4512031849186E-15
(PID.TID 0000.0001) %MON dynstat_uvel_max             =   6.0032352422606E-10
(PID.TID 0000.0001) %MON dynstat_uvel_min             =  -8.5454690939097E-10
(PID.TID 0000.0001) %MON dynstat_uvel_mean            =  -4.6939125354461E-14
(PID.TID 0000.0001) %MON dynstat_uvel_sd              =   2.8762145417269E-10
(PID.TID 0000.0001) %MON dynstat_uvel_del2            =   2.4326182030697E-14
(PID.TID 0000.0001) %MON dynstat_vvel_max             =   1.1422391300217E-09
(PID.TID 0000.0001) %MON dynstat_vvel_min             =  -1.1622400322128E-09
(PID.TID 0000.0001) %MON dynstat_vvel_mean            =   1.3633516348186E-15
(PID.TID 0000.0001) %MON dynstat_vvel_sd              =   5.0360610048060E-10
(PID.TID 0000.0001) %MON dynstat_vvel_del2            =   3.0535726614863E-14
(PID.TID 0000.0001) %MON dynstat_wvel_max             =   2.7788398565542E-15
(PID.TID 0000.0001) %MON dynstat_wvel_min             =  -4.5668118352216E-15
(PID.TID 0000.0001) %MON dynstat_wvel_mean            =   1.6209736192565E-29
(PID.TID 0000.0001) %MON dynstat_wvel_sd              =   1.9861381415593E-15
(PID.TID 0000.0001) %MON dynstat_wvel_del2            =   1.2114933342840E-20
(PID.TID 0000.0001) %MON dynstat_theta_max            =   2.0000000000000E+01
(PID.TID 0000.0001) %MON dynstat_theta_min            =   2.0000000000000E+01
(PID.TID 0000.0001) %MON dynstat_theta_mean           =   2.0000000000000E+01
(PID.TID 0000.0001) %MON dynstat_theta_sd             =   0.0000000000000E+00
(PID.TID 0000.0001) %MON dynstat_theta_del2           =   0.0000000000000E+00
(PID.TID 0000.0001) %MON dynstat_salt_max             =   3.0000000000000E+01
(PID.TID 0000.0001) %MON dynstat_salt_min             =   3.0000000000000E+01
(PID.TID 0000.0001) %MON dynstat_salt_mean            =   3.0000000000000E+01
(PID.TID 0000.0001) %MON dynstat_salt_sd              =   0.0000000000000E+00
(PID.TID 0000.0001) %MON dynstat_salt_del2            =   0.0000000000000E+00
(PID.TID 0000.0001) %MON trAdv_CFL_u_max              =   9.2520407876561E-10
(PID.TID 0000.0001) %MON trAdv_CFL_v_max              =   1.2578937617679E-09
(PID.TID 0000.0001) %MON trAdv_CFL_w_max              =   3.0222234796762E-15
(PID.TID 0000.0001) %MON advcfl_uvel_max              =   9.2291066214225E-10
(PID.TID 0000.0001) %MON advcfl_vvel_max              =   1.2552192347898E-09
(PID.TID 0000.0001) %MON advcfl_wvel_max              =   9.8643135640786E-15
(PID.TID 0000.0001) %MON advcfl_W_hf_max              =   0.0000000000000E+00
(PID.TID 0000.0001) %MON pe_b_mean                    =   5.9739468072902E-22
(PID.TID 0000.0001) %MON ke_max                       =   6.9346638808908E-19
(PID.TID 0000.0001) %MON ke_mean                      =   1.6748897530279E-19
(PID.TID 0000.0001) %MON ke_vol                       =   7.5645000000000E+15
(PID.TID 0000.0001) %MON vort_r_min                   =  -5.5171847186608E-14
(PID.TID 0000.0001) %MON vort_r_max                   =   5.3435008982613E-14
(PID.TID 0000.0001) %MON vort_a_mean                  =   8.2299999999999E-05
(PID.TID 0000.0001) %MON vort_a_sd                    =   7.1297555115685E-06
(PID.TID 0000.0001) %MON vort_p_mean                  =   8.3303658536585E-05
(PID.TID 0000.0001) %MON vort_p_sd                    =   1.7411470229721E-05
(PID.TID 0000.0001) %MON surfExpan_theta_mean         =   3.5493782190350E-28
(PID.TID 0000.0001) %MON surfExpan_salt_mean          =   5.1659603904058E-28
(PID.TID 0000.0001) // =======================================================
(PID.TID 0000.0001) // End MONITOR dynamic field statistics
(PID.TID 0000.0001) // =======================================================
 cg2d: Sum(rhs),rhsMax =  -2.87444442360194E-02  1.41535764061152E-10
 cg2d: Sum(rhs),rhsMax =  -2.85969622959202E-02  1.42265701075764E-10
 cg2d: Sum(rhs),rhsMax =  -2.84553398516023E-02  1.42973758890722E-10
 cg2d: Sum(rhs),rhsMax =  -2.83193782893258E-02  1.43660177403982E-10
 cg2d: Sum(rhs),rhsMax =  -2.81894414273745E-02  1.44322367282627E-10
 cg2d: Sum(rhs),rhsMax =  -2.80654072239144E-02  1.44960195946910E-10
 cg2d: Sum(rhs),rhsMax =  -2.79471603415285E-02  1.45573535543306E-10
 cg2d: Sum(rhs),rhsMax =  -2.78345919606830E-02  1.46162262953065E-10
 cg2d: Sum(rhs),rhsMax =  -2.77275994424330E-02  1.46726259812062E-10
 cg2d: Sum(rhs),rhsMax =  -2.76260861175685E-02  1.47265412536481E-10
 cg2d: Sum(rhs),rhsMax =  -2.75297097317284E-02  1.47780961684736E-10
 cg2d: Sum(rhs),rhsMax =  -2.74382069775907E-02  1.48273791858854E-10
 cg2d: Sum(rhs),rhsMax =  -2.73519486237339E-02  1.48741395297583E-10
 cg2d: Sum(rhs),rhsMax =  -2.72708589390230E-02  1.49183677101494E-10
 cg2d: Sum(rhs),rhsMax =  -2.71948672404861E-02  1.49600547343468E-10
 cg2d: Sum(rhs),rhsMax =  -2.71239077941018E-02  1.49991921028330E-10
(PID.TID 0000.0001)      cg2d_init_res =   3.21528628153002E-01
(PID.TID 0000.0001)      cg2d_iters(min,last) =      -1     547
(PID.TID 0000.0001)      cg2d_last_res =   9.90600546756822E-08
(PID.TID 0000.0001) // =======================================================
(PID.TID 0000.0001) // Begin MONITOR dynamic field statistics
(PID.TID 0000.0001) // =======================================================
(PID.TID 0000.0001) %MON time_tsnumber                =                  5824
(PID.TID 0000.0001) %MON time_secondsf                =   3.1449600000000E+07
(PID.TID 0000.0001) %MON dynstat_eta_max              =   1.6326285239674E-09
(PID.TID 0000.0001) %MON dynstat_eta_min              =  -1.7183426401335E-09
(PID.TID 0000.0001) %MON dynstat_eta_mean             =   3.9207344534350E-13
(PID.TID 0000.0001) %MON dynstat_eta_sd               =   7.7743244466272E-10
(PID.TID 0000.0001) %MON dynstat_eta_del2             =   5.5107975554143E-15
(PID.TID 0000.0001) %MON dynstat_uvel_max             =   5.8590377643195E-10
(PID.TID 0000.0001) %MON dynstat_uvel_min             =  -8.5578849586539E-10
(PID.TID 0000.0001) %MON dynstat_uvel_mean            =  -2.6612373906846E-14
(PID.TID 0000.0001) %MON dynstat_uvel_sd              =   2.7410705493110E-10
(PID.TID 0000.0001) %MON dynstat_uvel_del2            =   2.4975988687236E-14
(PID.TID 0000.0001) %MON dynstat_vvel_max             =   1.1575642056541E-09
(PID.TID 0000.0001) %MON dynstat_vvel_min             =  -1.1124758227369E-09
(PID.TID 0000.0001) %MON dynstat_vvel_mean            =   2.9159895705015E-15
(PID.TID 0000.0001) %MON dynstat_vvel_sd              =   5.0649592581663E-10
(PID.TID 0000.0001) %MON dynstat_vvel_del2            =   2.9543470997561E-14
(PID.TID 0000.0001) %MON dynstat_wvel_max             =   2.4590106387223E-15
(PID.TID 0000.0001) %MON dynstat_wvel_min             =  -4.4414439977214E-15
(PID.TID 0000.0001) %MON dynstat_wvel_mean            =   1.1919774510434E-28
(PID.TID 0000.0001) %MON dynstat_wvel_sd              =   1.9764956262091E-15
(PID.TID 0000.0001) %MON dynstat_wvel_del2            =   1.1945988593418E-20
(PID.TID 0000.0001) %MON dynstat_theta_max            =   2.0000000000000E+01
(PID.TID 0000.0001) %MON dynstat_theta_min            =   2.0000000000000E+01
(PID.TID 0000.0001) %MON dynstat_theta_mean           =   2.0000000000000E+01
(PID.TID 0000.0001) %MON dynstat_theta_sd             =   0.0000000000000E+00
(PID.TID 0000.0001) %MON dynstat_theta_del2           =   0.0000000000000E+00
(PID.TID 0000.0001) %MON dynstat_salt_max             =   3.0000000000000E+01
(PID.TID 0000.0001) %MON dynstat_salt_min             =   3.0000000000000E+01
(PID.TID 0000.0001) %MON dynstat_salt_mean            =   3.0000000000000E+01
(PID.TID 0000.0001) %MON dynstat_salt_sd              =   0.0000000000000E+00
(PID.TID 0000.0001) %MON dynstat_salt_del2            =   0.0000000000000E+00
(PID.TID 0000.0001) %MON trAdv_CFL_u_max              =   9.1743141584211E-10
(PID.TID 0000.0001) %MON trAdv_CFL_v_max              =   1.2498688813325E-09
(PID.TID 0000.0001) %MON trAdv_CFL_w_max              =   2.6779588089554E-15
(PID.TID 0000.0001) %MON advcfl_uvel_max              =   9.2425157553462E-10
(PID.TID 0000.0001) %MON advcfl_vvel_max              =   1.2501693421064E-09
(PID.TID 0000.0001) %MON advcfl_wvel_max              =   9.5935190350782E-15
(PID.TID 0000.0001) %MON advcfl_W_hf_max              =   0.0000000000000E+00
(PID.TID 0000.0001) %MON pe_b_mean                    =   5.9291773390086E-22
(PID.TID 0000.0001) %MON ke_max                       =   6.6998351735978E-19
(PID.TID 0000.0001) %MON ke_mean                      =   1.6516226886463E-19
(PID.TID 0000.0001) %MON ke_vol                       =   7.5645000000000E+15
(PID.TID 0000.0001) %MON vort_r_min                   =  -5.2819490035157E-14
(PID.TID 0000.0001) %MON vort_r_max                   =   5.8827918200461E-14
(PID.TID 0000.0001) %MON vort_a_mean                  =   8.2300000000001E-05
(PID.TID 0000.0001) %MON vort_a_sd                    =   7.1297555115542E-06
(PID.TID 0000.0001) %MON vort_p_mean                  =   8.3303658536586E-05
(PID.TID 0000.0001) %MON vort_p_sd                    =   1.7411470229692E-05
(PID.TID 0000.0001) %MON surfExpan_theta_mean         =   2.3804369199062E-27
(PID.TID 0000.0001) %MON surfExpan_salt_mean          =   3.5679229161808E-27
(PID.TID 0000.0001) // =======================================================
(PID.TID 0000.0001) // End MONITOR dynamic field statistics
(PID.TID 0000.0001) // =======================================================
(PID.TID 0000.0001) %CHECKPOINT      5824 ckptB
(PID.TID 0000.0001)   Seconds in section "ALL                    [THE_MODEL_MAIN]":
(PID.TID 0000.0001)           User time:   12585.6257936880
(PID.TID 0000.0001)         System time:  0.000000000000000E+000
(PID.TID 0000.0001)     Wall clock time:   12632.5715079308
(PID.TID 0000.0001)          No. starts:           1
(PID.TID 0000.0001)           No. stops:           1
(PID.TID 0000.0001)   Seconds in section "INITIALISE_FIXED       [THE_MODEL_MAIN]":
(PID.TID 0000.0001)           User time:  7.652400247752666E-002
(PID.TID 0000.0001)         System time:  0.000000000000000E+000
(PID.TID 0000.0001)     Wall clock time:  0.296082973480225
(PID.TID 0000.0001)          No. starts:           1
(PID.TID 0000.0001)           No. stops:           1
(PID.TID 0000.0001)   Seconds in section "THE_MAIN_LOOP          [THE_MODEL_MAIN]":
(PID.TID 0000.0001)           User time:   12585.5492336899
(PID.TID 0000.0001)         System time:  0.000000000000000E+000
(PID.TID 0000.0001)     Wall clock time:   12632.2753598690
(PID.TID 0000.0001)          No. starts:           1
(PID.TID 0000.0001)           No. stops:           1
(PID.TID 0000.0001)   Seconds in section "INITIALISE_VARIA    [THE_MAIN_LOOP]":
(PID.TID 0000.0001)           User time:  2.754399925470352E-002
(PID.TID 0000.0001)         System time:  0.000000000000000E+000
(PID.TID 0000.0001)     Wall clock time:  0.104917049407959
(PID.TID 0000.0001)          No. starts:           1
(PID.TID 0000.0001)           No. stops:           1
(PID.TID 0000.0001)   Seconds in section "MAIN LOOP           [THE_MAIN_LOOP]":
(PID.TID 0000.0001)           User time:   12585.5216506869
(PID.TID 0000.0001)         System time:  0.000000000000000E+000
(PID.TID 0000.0001)     Wall clock time:   12632.1703572273
(PID.TID 0000.0001)          No. starts:           1
(PID.TID 0000.0001)           No. stops:           1
(PID.TID 0000.0001)   Seconds in section "MAIN_DO_LOOP        [THE_MAIN_LOOP]":
(PID.TID 0000.0001)           User time:   12585.4373787940
(PID.TID 0000.0001)         System time:  0.000000000000000E+000
(PID.TID 0000.0001)     Wall clock time:   12632.1028175354
(PID.TID 0000.0001)          No. starts:        5824
(PID.TID 0000.0001)           No. stops:        5824
(PID.TID 0000.0001)   Seconds in section "FORWARD_STEP        [MAIN_DO_LOOP]":
(PID.TID 0000.0001)           User time:   12585.3091574311
(PID.TID 0000.0001)         System time:  0.000000000000000E+000
(PID.TID 0000.0001)     Wall clock time:   12631.9607825279
(PID.TID 0000.0001)          No. starts:        5824
(PID.TID 0000.0001)           No. stops:        5824
(PID.TID 0000.0001)   Seconds in section "LOAD_FIELDS_DRIVER  [FORWARD_STEP]":
(PID.TID 0000.0001)           User time:  0.214131288230419
(PID.TID 0000.0001)         System time:  0.000000000000000E+000
(PID.TID 0000.0001)     Wall clock time:  0.211966276168823
(PID.TID 0000.0001)          No. starts:        5824
(PID.TID 0000.0001)           No. stops:        5824
(PID.TID 0000.0001)   Seconds in section "EXTERNAL_FLDS_LOAD [LOAD_FLDS_DRIVER]":
(PID.TID 0000.0001)           User time:  7.110182195901871E-002
(PID.TID 0000.0001)         System time:  0.000000000000000E+000
(PID.TID 0000.0001)     Wall clock time:  7.038307189941406E-002
(PID.TID 0000.0001)          No. starts:        5824
(PID.TID 0000.0001)           No. stops:        5824
(PID.TID 0000.0001)   Seconds in section "DO_ATMOSPHERIC_PHYS [FORWARD_STEP]":
(PID.TID 0000.0001)           User time:  6.976501643657684E-002
(PID.TID 0000.0001)         System time:  0.000000000000000E+000
(PID.TID 0000.0001)     Wall clock time:  7.124543190002441E-002
(PID.TID 0000.0001)          No. starts:        5824
(PID.TID 0000.0001)           No. stops:        5824
(PID.TID 0000.0001)   Seconds in section "DO_OCEANIC_PHYS     [FORWARD_STEP]":
(PID.TID 0000.0001)           User time:   105.850519679487
(PID.TID 0000.0001)         System time:  0.000000000000000E+000
(PID.TID 0000.0001)     Wall clock time:   106.045444965363
(PID.TID 0000.0001)          No. starts:        5824
(PID.TID 0000.0001)           No. stops:        5824
(PID.TID 0000.0001)   Seconds in section "THERMODYNAMICS      [FORWARD_STEP]":
(PID.TID 0000.0001)           User time:   78.1329509019852
(PID.TID 0000.0001)         System time:  0.000000000000000E+000
(PID.TID 0000.0001)     Wall clock time:   79.4181203842163
(PID.TID 0000.0001)          No. starts:        5824
(PID.TID 0000.0001)           No. stops:        5824
(PID.TID 0000.0001)   Seconds in section "DYNAMICS            [FORWARD_STEP]":
(PID.TID 0000.0001)           User time:   1352.54064352810
(PID.TID 0000.0001)         System time:  0.000000000000000E+000
(PID.TID 0000.0001)     Wall clock time:   1357.02893114090
(PID.TID 0000.0001)          No. starts:        5824
(PID.TID 0000.0001)           No. stops:        5824
(PID.TID 0000.0001)   Seconds in section "SOLVE_FOR_PRESSURE  [FORWARD_STEP]":
(PID.TID 0000.0001)           User time:   10658.8951470107
(PID.TID 0000.0001)         System time:  0.000000000000000E+000
(PID.TID 0000.0001)     Wall clock time:   10692.7998192310
(PID.TID 0000.0001)          No. starts:        5824
(PID.TID 0000.0001)           No. stops:        5824
(PID.TID 0000.0001)   Seconds in section "MOM_CORRECTION_STEP [FORWARD_STEP]":
(PID.TID 0000.0001)           User time:   135.223212659359
(PID.TID 0000.0001)         System time:  0.000000000000000E+000
(PID.TID 0000.0001)     Wall clock time:   135.881404638290
(PID.TID 0000.0001)          No. starts:        5824
(PID.TID 0000.0001)           No. stops:        5824
(PID.TID 0000.0001)   Seconds in section "INTEGR_CONTINUITY   [FORWARD_STEP]":
(PID.TID 0000.0001)           User time:   111.937686681747
(PID.TID 0000.0001)         System time:  0.000000000000000E+000
(PID.TID 0000.0001)     Wall clock time:   112.912931919098
(PID.TID 0000.0001)          No. starts:        5824
(PID.TID 0000.0001)           No. stops:        5824
(PID.TID 0000.0001)   Seconds in section "TRC_CORRECTION_STEP [FORWARD_STEP]":
(PID.TID 0000.0001)           User time:  7.747572660446167E-002
(PID.TID 0000.0001)         System time:  0.000000000000000E+000
(PID.TID 0000.0001)     Wall clock time:  7.299900054931641E-002
(PID.TID 0000.0001)          No. starts:        5824
(PID.TID 0000.0001)           No. stops:        5824
(PID.TID 0000.0001)   Seconds in section "BLOCKING_EXCHANGES  [FORWARD_STEP]":
(PID.TID 0000.0001)           User time:   2.48618614673615
(PID.TID 0000.0001)         System time:  0.000000000000000E+000
(PID.TID 0000.0001)     Wall clock time:   2.49547958374023
(PID.TID 0000.0001)          No. starts:        5824
(PID.TID 0000.0001)           No. stops:        5824
(PID.TID 0000.0001)   Seconds in section "MONITOR             [FORWARD_STEP]":
(PID.TID 0000.0001)           User time:   130.862352669239
(PID.TID 0000.0001)         System time:  0.000000000000000E+000
(PID.TID 0000.0001)     Wall clock time:   131.065846204758
(PID.TID 0000.0001)          No. starts:        5824
(PID.TID 0000.0001)           No. stops:        5824
(PID.TID 0000.0001)   Seconds in section "DO_THE_MODEL_IO     [FORWARD_STEP]":
(PID.TID 0000.0001)           User time:   6.26277500391006
(PID.TID 0000.0001)         System time:  0.000000000000000E+000
(PID.TID 0000.0001)     Wall clock time:   12.5706534385681
(PID.TID 0000.0001)          No. starts:        5824
(PID.TID 0000.0001)           No. stops:        5824
(PID.TID 0000.0001)   Seconds in section "DO_WRITE_PICKUP     [FORWARD_STEP]":
(PID.TID 0000.0001)           User time:  0.120856344699860
(PID.TID 0000.0001)         System time:  0.000000000000000E+000
(PID.TID 0000.0001)     Wall clock time:  0.349585533142090
(PID.TID 0000.0001)          No. starts:        5824
(PID.TID 0000.0001)           No. stops:        5824
(PID.TID 0000.0001) // ======================================================
(PID.TID 0000.0001) // Tile <-> Tile communication statistics
(PID.TID 0000.0001) // ======================================================
(PID.TID 0000.0001) // o Tile number: 000001
(PID.TID 0000.0001) //         No. X exchanges =              0
(PID.TID 0000.0001) //            Max. X spins =              0
(PID.TID 0000.0001) //            Min. X spins =     1000000000
(PID.TID 0000.0001) //          Total. X spins =              0
(PID.TID 0000.0001) //            Avg. X spins =       0.00E+00
(PID.TID 0000.0001) //         No. Y exchanges =              0
(PID.TID 0000.0001) //            Max. Y spins =              0
(PID.TID 0000.0001) //            Min. Y spins =     1000000000
(PID.TID 0000.0001) //          Total. Y spins =              0
(PID.TID 0000.0001) //            Avg. Y spins =       0.00E+00
(PID.TID 0000.0001) // o Thread number: 000001
(PID.TID 0000.0001) //            No. barriers =       19106862
(PID.TID 0000.0001) //      Max. barrier spins =              1
(PID.TID 0000.0001) //      Min. barrier spins =              1
(PID.TID 0000.0001) //     Total barrier spins =       19106862
(PID.TID 0000.0001) //      Avg. barrier spins =       1.00E+00
PROGRAM MAIN: Execution ended Normally
